<?xml version="1.0" encoding="ISO-8859-1"?>
<febio_spec version="4.0">
  <Module type="solid"/>
  <Control>
    <analysis>STATIC</analysis>
    <time_steps>10</time_steps>
    <step_size>0.1</step_size>
    <plot_zero_state>0</plot_zero_state>
    <plot_range>0,-1</plot_range>
    <plot_level>PLOT_MAJOR_ITRS</plot_level>
    <output_level>OUTPUT_MAJOR_ITRS</output_level>
    <solver type="solid">
      <symmetric_stiffness>non-symmetric</symmetric_stiffness>
      <equation_scheme>staggered</equation_scheme>
      <equation_order>default</equation_order>
      <optimize_bw>0</optimize_bw>
      <lstol>0.9</lstol>
      <lsmin>0.01</lsmin>
      <lsiter>5</lsiter>
      <max_refs>25</max_refs>
      <check_zero_diagonal>0</check_zero_diagonal>
      <zero_diagonal_tol>0</zero_diagonal_tol>
      <force_partition>0</force_partition>
      <reform_each_time_step>1</reform_each_time_step>
      <reform_augment>0</reform_augment>
      <diverge_reform>1</diverge_reform>
      <min_residual>1e-20</min_residual>
      <max_residual>0</max_residual>
      <dtol>0.001</dtol>
      <etol>0.01</etol>
      <rtol>0</rtol>
      <rhoi>-2</rhoi>
      <alpha>1</alpha>
      <beta>0.25</beta>
      <gamma>0.5</gamma>
      <logSolve>0</logSolve>
      <arc_length>0</arc_length>
      <arc_length_scale>0</arc_length_scale>
      <qn_method type="BFGS">
        <max_ups>10</max_ups>
        <max_buffer_size>0</max_buffer_size>
        <cycle_buffer>1</cycle_buffer>
        <cmax>100000</cmax>
      </qn_method>
    </solver>
  </Control>
  <Globals>
    <Constants>
      <R>8.314e-6</R>
      <T>294</T>
      <Fc>96485e-6</Fc>
    </Constants>
  </Globals>
  <Material>
    <material id="1" name="Stroma" type="HGO unconstrained">
      <c>0.1</c>
      <k1>0.22</k1>
      <k2>100.0</k2>
      <kappa>0.09</kappa>
      <k>4.76</k>
      <mat_axis type="map">
        <map name="mat_axis_map"/>
      </mat_axis>
    </material>
  </Material>
  <Mesh>
    <Nodes name="Object1">
      <node id="1">0.00000000,0.00000000,0.00000000</node>
      <node id="2">0.31670065,0.00000000,-0.00643209</node>
      <node id="3">0.30590934,0.08196816,-0.00643209</node>
      <node id="4">0.27427081,0.15835032,-0.00643209</node>
      <node id="5">0.22394118,0.22394118,-0.00643209</node>
      <node id="6">0.15835032,0.27427081,-0.00643209</node>
      <node id="7">0.08196816,0.30590934,-0.00643209</node>
      <node id="8">0.00000000,0.31670065,-0.00643209</node>
      <node id="9">-0.08196816,0.30590934,-0.00643209</node>
      <node id="10">-0.15835032,0.27427081,-0.00643209</node>
      <node id="11">-0.22394118,0.22394118,-0.00643209</node>
      <node id="12">-0.27427081,0.15835032,-0.00643209</node>
      <node id="13">-0.30590934,0.08196816,-0.00643209</node>
      <node id="14">-0.31670065,0.00000000,-0.00643209</node>
      <node id="15">-0.30590934,-0.08196816,-0.00643209</node>
      <node id="16">-0.27427081,-0.15835032,-0.00643209</node>
      <node id="17">-0.22394118,-0.22394118,-0.00643209</node>
      <node id="18">-0.15835032,-0.27427081,-0.00643209</node>
      <node id="19">-0.08196816,-0.30590934,-0.00643209</node>
      <node id="20">-0.00000000,-0.31670065,-0.00643209</node>
<!-- ... 942 like lines cut -->
    </Nodes>
    <Elements type="penta6" name="ApexElements">
      <elem id="1">1,2,3,482,483,484</elem>
      <elem id="2">1,3,4,482,484,485</elem>
      <elem id="3">1,4,5,482,485,486</elem>
      <elem id="4">1,5,6,482,486,487</elem>
      <elem id="5">1,6,7,482,487,488</elem>
      <elem id="6">1,7,8,482,488,489</elem>
      <elem id="7">1,8,9,482,489,490</elem>
      <elem id="8">1,9,10,482,490,491</elem>
      <elem id="9">1,10,11,482,491,492</elem>
      <elem id="10">1,11,12,482,492,493</elem>
      <elem id="11">1,12,13,482,493,494</elem>
      <elem id="12">1,13,14,482,494,495</elem>
      <elem id="13">1,14,15,482,495,496</elem>
      <elem id="14">1,15,16,482,496,497</elem>
      <elem id="15">1,16,17,482,497,498</elem>
      <elem id="16">1,17,18,482,498,499</elem>
      <elem id="17">1,18,19,482,499,500</elem>
      <elem id="18">1,19,20,482,500,501</elem>
      <elem id="19">1,20,21,482,501,502</elem>
      <elem id="20">1,21,22,482,502,503</elem>
<!-- ... 4 like lines cut -->
    </Elements>
    <Elements type="hex8" name="BodyElements">
      <elem id="25">2,26,27,3,483,507,508,484</elem>
      <elem id="26">3,27,28,4,484,508,509,485</elem>
      <elem id="27">4,28,29,5,485,509,510,486</elem>
      <elem id="28">5,29,30,6,486,510,511,487</elem>
      <elem id="29">6,30,31,7,487,511,512,488</elem>
      <elem id="30">7,31,32,8,488,512,513,489</elem>
      <elem id="31">8,32,33,9,489,513,514,490</elem>
      <elem id="32">9,33,34,10,490,514,515,491</elem>
      <elem id="33">10,34,35,11,491,515,516,492</elem>
      <elem id="34">11,35,36,12,492,516,517,493</elem>
      <elem id="35">12,36,37,13,493,517,518,494</elem>
      <elem id="36">13,37,38,14,494,518,519,495</elem>
      <elem id="37">14,38,39,15,495,519,520,496</elem>
      <elem id="38">15,39,40,16,496,520,521,497</elem>
      <elem id="39">16,40,41,17,497,521,522,498</elem>
      <elem id="40">17,41,42,18,498,522,523,499</elem>
      <elem id="41">18,42,43,19,499,523,524,500</elem>
      <elem id="42">19,43,44,20,500,524,525,501</elem>
      <elem id="43">20,44,45,21,501,525,526,502</elem>
      <elem id="44">21,45,46,22,502,526,527,503</elem>
<!-- ... 436 like lines cut -->
    </Elements>
    <NodeSet name="LimbalNodes">458, 459, 460, 461, 462, 463, 464, 465, 466, 467, 468, 469, 470, 471, 472, 473, 474, 475, 476, 477, 478, 479, 480, 481, 939, 940, 941, 942, 943, 944, 945, 946, 947, 948, 949, 950, 951, 952, 953, 954, 955, 956, 957, 958, 959, 960, 961, 962</NodeSet>
    <NodeSet name="ICRSNodes_XY">314, 795, 315, 796, 316, 797, 317, 798, 318, 799, 319, 800, 320, 801, 321, 802</NodeSet>
    <Surface name="PosteriorSurface">
      <tri3 id="1">1,2,3</tri3>
      <tri3 id="2">1,3,4</tri3>
      <tri3 id="3">1,4,5</tri3>
      <tri3 id="4">1,5,6</tri3>
      <tri3 id="5">1,6,7</tri3>
      <tri3 id="6">1,7,8</tri3>
      <tri3 id="7">1,8,9</tri3>
      <tri3 id="8">1,9,10</tri3>
      <tri3 id="9">1,10,11</tri3>
      <tri3 id="10">1,11,12</tri3>
      <tri3 id="11">1,12,13</tri3>
      <tri3 id="12">1,13,14</tri3>
      <tri3 id="13">1,14,15</tri3>
      <tri3 id="14">1,15,16</tri3>
      <tri3 id="15">1,16,17</tri3>
      <tri3 id="16">1,17,18</tri3>
      <tri3 id="17">1,18,19</tri3>
      <tri3 id="18">1,19,20</tri3>
      <tri3 id="19">1,20,21</tri3>
      <tri3 id="20">1,21,22</tri3>
<!-- ... 4 like lines cut -->
      <quad4 id="25">2,26,27,3</quad4>
      <quad4 id="26">3,27,28,4</quad4>
      <quad4 id="27">4,28,29,5</quad4>
      <quad4 id="28">5,29,30,6</quad4>
      <quad4 id="29">6,30,31,7</quad4>
      <quad4 id="30">7,31,32,8</quad4>
      <quad4 id="31">8,32,33,9</quad4>
      <quad4 id="32">9,33,34,10</quad4>
      <quad4 id="33">10,34,35,11</quad4>
      <quad4 id="34">11,35,36,12</quad4>
      <quad4 id="35">12,36,37,13</quad4>
      <quad4 id="36">13,37,38,14</quad4>
      <quad4 id="37">14,38,39,15</quad4>
      <quad4 id="38">15,39,40,16</quad4>
      <quad4 id="39">16,40,41,17</quad4>
      <quad4 id="40">17,41,42,18</quad4>
      <quad4 id="41">18,42,43,19</quad4>
      <quad4 id="42">19,43,44,20</quad4>
      <quad4 id="43">20,44,45,21</quad4>
      <quad4 id="44">21,45,46,22</quad4>
<!-- ... 436 like lines cut -->
    </Surface>
  </Mesh>
  <MeshDomains>
    <SolidDomain name="ApexElements" mat="Stroma"/>
    <SolidDomain name="BodyElements" mat="Stroma"/>
  </MeshDomains>
  <MeshData>
    <ElementData name="mat_axis_map" type="mat_axis" elem_set="ApexElements">
      <elem lid="1">
        <a>-0.130526,0.991445,0.000000</a>
        <d>0.991088,0.130479,-0.026842</d>
      </elem>
      <elem lid="2">
        <a>-0.382683,0.923880,0.000000</a>
        <d>0.923547,0.382546,-0.026842</d>
      </elem>
      <elem lid="3">
        <a>-0.608761,0.793353,0.000000</a>
        <d>0.793067,0.608542,-0.026842</d>
      </elem>
      <elem lid="4">
        <a>-0.793353,0.608761,0.000000</a>
        <d>0.608542,0.793067,-0.026842</d>
      </elem>
      <elem lid="5">
        <a>-0.923880,0.382683,0.000000</a>
        <d>0.382546,0.923547,-0.026842</d>
      </elem>
      <elem lid="6">
        <a>-0.991445,0.130526,0.000000</a>
        <d>0.130479,0.991088,-0.026842</d>
      </elem>
      <elem lid="7">
        <a>-0.991445,-0.130526,0.000000</a>
        <d>-0.130479,0.991088,-0.026842</d>
      </elem>
      <elem lid="8">
        <a>-0.923880,-0.382683,0.000000</a>
        <d>-0.382546,0.923547,-0.026842</d>
      </elem>
      <elem lid="9">
        <a>-0.793353,-0.608761,0.000000</a>
        <d>-0.608542,0.793067,-0.026842</d>
      </elem>
      <elem lid="10">
        <a>-0.608761,-0.793353,0.000000</a>
        <d>-0.793067,0.608542,-0.026842</d>
      </elem>
      <elem lid="11">
        <a>-0.382683,-0.923880,0.000000</a>
        <d>-0.923547,0.382546,-0.026842</d>
      </elem>
      <elem lid="12">
        <a>-0.130526,-0.991445,0.000000</a>
        <d>-0.991088,0.130479,-0.026842</d>
      </elem>
      <elem lid="13">
        <a>0.130526,-0.991445,0.000000</a>
        <d>-0.991088,-0.130479,-0.026842</d>
      </elem>
      <elem lid="14">
        <a>0.382683,-0.923880,0.000000</a>
        <d>-0.923547,-0.382546,-0.026842</d>
      </elem>
      <elem lid="15">
        <a>0.608761,-0.793353,0.000000</a>
        <d>-0.793067,-0.608542,-0.026842</d>
      </elem>
      <elem lid="16">
        <a>0.793353,-0.608761,0.000000</a>
        <d>-0.608542,-0.793067,-0.026842</d>
      </elem>
      <elem lid="17">
        <a>0.923880,-0.382683,0.000000</a>
        <d>-0.382546,-0.923547,-0.026842</d>
      </elem>
      <elem lid="18">
        <a>0.991445,-0.130526,0.000000</a>
        <d>-0.130479,-0.991088,-0.026842</d>
      </elem>
      <elem lid="19">
        <a>0.991445,0.130526,0.000000</a>
        <d>0.130479,-0.991088,-0.026842</d>
      </elem>
      <elem lid="20">
        <a>0.923880,0.382683,0.000000</a>
        <d>0.382546,-0.923547,-0.026842</d>
      </elem>
      <elem lid="21">
        <a>0.793353,0.608761,0.000000</a>
        <d>0.608542,-0.793067,-0.026842</d>
      </elem>
      <elem lid="22">
        <a>0.608761,0.793353,0.000000</a>
        <d>0.793067,-0.608542,-0.026842</d>
      </elem>
      <elem lid="23">
        <a>0.382683,0.923880,0.000000</a>
        <d>0.923547,-0.382546,-0.026842</d>
      </elem>
      <elem lid="24">
        <a>0.130526,0.991445,0.000000</a>
        <d>0.991088,-0.130479,-0.026842</d>
      </elem>
    </ElementData>
    <ElementData name="mat_axis_map" type="mat_axis" elem_set="BodyElements">
      <elem lid="1">
        <a>-0.130526,0.991445,0.000000</a>
        <d>0.989637,0.130288,-0.060364</d>
      </elem>
      <elem lid="2">
        <a>-0.382683,0.923880,0.000000</a>
        <d>0.922195,0.381986,-0.060364</d>
      </elem>
      <elem lid="3">
        <a>-0.608761,0.793353,0.000000</a>
        <d>0.791907,0.607651,-0.060364</d>
      </elem>
      <elem lid="4">
        <a>-0.793353,0.608761,0.000000</a>
        <d>0.607651,0.791907,-0.060364</d>
      </elem>
      <elem lid="5">
        <a>-0.923880,0.382683,0.000000</a>
        <d>0.381986,0.922195,-0.060364</d>
      </elem>
      <elem lid="6">
        <a>-0.991445,0.130526,0.000000</a>
        <d>0.130288,0.989637,-0.060364</d>
      </elem>
      <elem lid="7">
        <a>-0.991445,-0.130526,0.000000</a>
        <d>-0.130288,0.989637,-0.060364</d>
      </elem>
      <elem lid="8">
        <a>-0.923880,-0.382683,0.000000</a>
        <d>-0.381986,0.922195,-0.060364</d>
      </elem>
      <elem lid="9">
        <a>-0.793353,-0.608761,0.000000</a>
        <d>-0.607651,0.791907,-0.060364</d>
      </elem>
      <elem lid="10">
        <a>-0.608761,-0.793353,0.000000</a>
        <d>-0.791907,0.607651,-0.060364</d>
      </elem>
      <elem lid="11">
        <a>-0.382683,-0.923880,0.000000</a>
        <d>-0.922195,0.381986,-0.060364</d>
      </elem>
      <elem lid="12">
        <a>-0.130526,-0.991445,0.000000</a>
        <d>-0.989637,0.130288,-0.060364</d>
      </elem>
      <elem lid="13">
        <a>0.130526,-0.991445,0.000000</a>
        <d>-0.989637,-0.130288,-0.060364</d>
      </elem>
      <elem lid="14">
        <a>0.382683,-0.923880,0.000000</a>
        <d>-0.922195,-0.381986,-0.060364</d>
      </elem>
      <elem lid="15">
        <a>0.608761,-0.793353,0.000000</a>
        <d>-0.791907,-0.607651,-0.060364</d>
      </elem>
      <elem lid="16">
        <a>0.793353,-0.608761,0.000000</a>
        <d>-0.607651,-0.791907,-0.060364</d>
      </elem>
      <elem lid="17">
        <a>0.923880,-0.382683,0.000000</a>
        <d>-0.381986,-0.922195,-0.060364</d>
      </elem>
      <elem lid="18">
        <a>0.991445,-0.130526,0.000000</a>
        <d>-0.130288,-0.989637,-0.060364</d>
      </elem>
      <elem lid="19">
        <a>0.991445,0.130526,0.000000</a>
        <d>0.130288,-0.989637,-0.060364</d>
      </elem>
      <elem lid="20">
        <a>0.923880,0.382683,0.000000</a>
        <d>0.381986,-0.922195,-0.060364</d>
      </elem>
      <elem lid="21">
        <a>0.793353,0.608761,0.000000</a>
        <d>0.607651,-0.791907,-0.060364</d>
      </elem>
      <elem lid="22">
        <a>0.608761,0.793353,0.000000</a>
        <d>0.791907,-0.607651,-0.060364</d>
      </elem>
      <elem lid="23">
        <a>0.382683,0.923880,0.000000</a>
        <d>0.922195,-0.381986,-0.060364</d>
      </elem>
      <elem lid="24">
        <a>0.130526,0.991445,0.000000</a>
        <d>0.989637,-0.130288,-0.060364</d>
      </elem>
      <elem lid="25">
        <a>-0.130526,0.991445,0.000000</a>
        <d>0.986425,0.129865,-0.100502</d>
      </elem>
      <elem lid="26">
        <a>-0.382683,0.923880,0.000000</a>
        <d>0.919202,0.380746,-0.100502</d>
      </elem>
      <elem lid="27">
        <a>-0.608761,0.793353,0.000000</a>
        <d>0.789336,0.605679,-0.100502</d>
      </elem>
      <elem lid="28">
        <a>-0.793353,0.608761,0.000000</a>
        <d>0.605679,0.789336,-0.100502</d>
      </elem>
      <elem lid="29">
        <a>-0.923880,0.382683,0.000000</a>
        <d>0.380746,0.919202,-0.100502</d>
      </elem>
      <elem lid="30">
        <a>-0.991445,0.130526,0.000000</a>
        <d>0.129865,0.986425,-0.100502</d>
      </elem>
      <elem lid="31">
        <a>-0.991445,-0.130526,0.000000</a>
        <d>-0.129865,0.986425,-0.100502</d>
      </elem>
      <elem lid="32">
        <a>-0.923880,-0.382683,0.000000</a>
        <d>-0.380746,0.919202,-0.100502</d>
      </elem>
      <elem lid="33">
        <a>-0.793353,-0.608761,0.000000</a>
        <d>-0.605679,0.789336,-0.100502</d>
      </elem>
      <elem lid="34">
        <a>-0.608761,-0.793353,0.000000</a>
        <d>-0.789336,0.605679,-0.100502</d>
      </elem>
      <elem lid="35">
        <a>-0.382683,-0.923880,0.000000</a>
        <d>-0.919202,0.380746,-0.100502</d>
      </elem>
      <elem lid="36">
        <a>-0.130526,-0.991445,0.000000</a>
        <d>-0.986425,0.129865,-0.100502</d>
      </elem>
      <elem lid="37">
        <a>0.130526,-0.991445,0.000000</a>
        <d>-0.986425,-0.129865,-0.100502</d>
      </elem>
      <elem lid="38">
        <a>0.382683,-0.923880,0.000000</a>
        <d>-0.919202,-0.380746,-0.100502</d>
      </elem>
      <elem lid="39">
        <a>0.608761,-0.793353,0.000000</a>
        <d>-0.789336,-0.605679,-0.100502</d>
      </elem>
      <elem lid="40">
        <a>0.793353,-0.608761,0.000000</a>
        <d>-0.605679,-0.789336,-0.100502</d>
      </elem>
      <elem lid="41">
        <a>0.923880,-0.382683,0.000000</a>
        <d>-0.380746,-0.919202,-0.100502</d>
      </elem>
      <elem lid="42">
        <a>0.991445,-0.130526,0.000000</a>
        <d>-0.129865,-0.986425,-0.100502</d>
      </elem>
      <elem lid="43">
        <a>0.991445,0.130526,0.000000</a>
        <d>0.129865,-0.986425,-0.100502</d>
      </elem>
      <elem lid="44">
        <a>0.923880,0.382683,0.000000</a>
        <d>0.380746,-0.919202,-0.100502</d>
      </elem>
      <elem lid="45">
        <a>0.793353,0.608761,0.000000</a>
        <d>0.605679,-0.789336,-0.100502</d>
      </elem>
      <elem lid="46">
        <a>0.608761,0.793353,0.000000</a>
        <d>0.789336,-0.605679,-0.100502</d>
      </elem>
      <elem lid="47">
        <a>0.382683,0.923880,0.000000</a>
        <d>0.919202,-0.380746,-0.100502</d>
      </elem>
      <elem lid="48">
        <a>0.130526,0.991445,0.000000</a>
        <d>0.986425,-0.129865,-0.100502</d>
      </elem>
      <elem lid="49">
        <a>-0.130526,0.991445,0.000000</a>
        <d>0.981613,0.129232,-0.140482</d>
      </elem>
      <elem lid="50">
        <a>-0.382683,0.923880,0.000000</a>
        <d>0.914718,0.378888,-0.140482</d>
      </elem>
      <elem lid="51">
        <a>-0.608761,0.793353,0.000000</a>
        <d>0.785486,0.602724,-0.140482</d>
      </elem>
      <elem lid="52">
        <a>-0.793353,0.608761,0.000000</a>
        <d>0.602724,0.785486,-0.140482</d>
      </elem>
      <elem lid="53">
        <a>-0.923880,0.382683,0.000000</a>
        <d>0.378888,0.914718,-0.140482</d>
      </elem>
      <elem lid="54">
        <a>-0.991445,0.130526,0.000000</a>
        <d>0.129232,0.981613,-0.140482</d>
      </elem>
      <elem lid="55">
        <a>-0.991445,-0.130526,0.000000</a>
        <d>-0.129232,0.981613,-0.140482</d>
      </elem>
      <elem lid="56">
        <a>-0.923880,-0.382683,0.000000</a>
        <d>-0.378888,0.914718,-0.140482</d>
      </elem>
      <elem lid="57">
        <a>-0.793353,-0.608761,0.000000</a>
        <d>-0.602724,0.785486,-0.140482</d>
      </elem>
      <elem lid="58">
        <a>-0.608761,-0.793353,0.000000</a>
        <d>-0.785486,0.602724,-0.140482</d>
      </elem>
      <elem lid="59">
        <a>-0.382683,-0.923880,0.000000</a>
        <d>-0.914718,0.378888,-0.140482</d>
      </elem>
      <elem lid="60">
        <a>-0.130526,-0.991445,0.000000</a>
        <d>-0.981613,0.129232,-0.140482</d>
      </elem>
      <elem lid="61">
        <a>0.130526,-0.991445,0.000000</a>
        <d>-0.981613,-0.129232,-0.140482</d>
      </elem>
      <elem lid="62">
        <a>0.382683,-0.923880,0.000000</a>
        <d>-0.914718,-0.378888,-0.140482</d>
      </elem>
      <elem lid="63">
        <a>0.608761,-0.793353,0.000000</a>
        <d>-0.785486,-0.602724,-0.140482</d>
      </elem>
      <elem lid="64">
        <a>0.793353,-0.608761,0.000000</a>
        <d>-0.602724,-0.785486,-0.140482</d>
      </elem>
      <elem lid="65">
        <a>0.923880,-0.382683,0.000000</a>
        <d>-0.378888,-0.914718,-0.140482</d>
      </elem>
      <elem lid="66">
        <a>0.991445,-0.130526,0.000000</a>
        <d>-0.129232,-0.981613,-0.140482</d>
      </elem>
      <elem lid="67">
        <a>0.991445,0.130526,0.000000</a>
        <d>0.129232,-0.981613,-0.140482</d>
      </elem>
      <elem lid="68">
        <a>0.923880,0.382683,0.000000</a>
        <d>0.378888,-0.914718,-0.140482</d>
      </elem>
      <elem lid="69">
        <a>0.793353,0.608761,0.000000</a>
        <d>0.602724,-0.785486,-0.140482</d>
      </elem>
      <elem lid="70">
        <a>0.608761,0.793353,0.000000</a>
        <d>0.785486,-0.602724,-0.140482</d>
      </elem>
      <elem lid="71">
        <a>0.382683,0.923880,0.000000</a>
        <d>0.914718,-0.378888,-0.140482</d>
      </elem>
      <elem lid="72">
        <a>0.130526,0.991445,0.000000</a>
        <d>0.981613,-0.129232,-0.140482</d>
      </elem>
      <elem lid="73">
        <a>-0.130526,0.991445,0.000000</a>
        <d>0.975207,0.128388,-0.180242</d>
      </elem>
      <elem lid="74">
        <a>-0.382683,0.923880,0.000000</a>
        <d>0.908748,0.376416,-0.180242</d>
      </elem>
      <elem lid="75">
        <a>-0.608761,0.793353,0.000000</a>
        <d>0.780360,0.598791,-0.180242</d>
      </elem>
      <elem lid="76">
        <a>-0.793353,0.608761,0.000000</a>
        <d>0.598791,0.780360,-0.180242</d>
      </elem>
      <elem lid="77">
        <a>-0.923880,0.382683,0.000000</a>
        <d>0.376416,0.908748,-0.180242</d>
      </elem>
      <elem lid="78">
        <a>-0.991445,0.130526,0.000000</a>
        <d>0.128388,0.975207,-0.180242</d>
      </elem>
      <elem lid="79">
        <a>-0.991445,-0.130526,0.000000</a>
        <d>-0.128388,0.975207,-0.180242</d>
      </elem>
      <elem lid="80">
        <a>-0.923880,-0.382683,0.000000</a>
        <d>-0.376416,0.908748,-0.180242</d>
      </elem>
      <elem lid="81">
        <a>-0.793353,-0.608761,0.000000</a>
        <d>-0.598791,0.780360,-0.180242</d>
      </elem>
      <elem lid="82">
        <a>-0.608761,-0.793353,0.000000</a>
        <d>-0.780360,0.598791,-0.180242</d>
      </elem>
      <elem lid="83">
        <a>-0.382683,-0.923880,0.000000</a>
        <d>-0.908748,0.376416,-0.180242</d>
      </elem>
      <elem lid="84">
        <a>-0.130526,-0.991445,0.000000</a>
        <d>-0.975207,0.128388,-0.180242</d>
      </elem>
      <elem lid="85">
        <a>0.130526,-0.991445,0.000000</a>
        <d>-0.975207,-0.128388,-0.180242</d>
      </elem>
      <elem lid="86">
        <a>0.382683,-0.923880,0.000000</a>
        <d>-0.908748,-0.376416,-0.180242</d>
      </elem>
      <elem lid="87">
        <a>0.608761,-0.793353,0.000000</a>
        <d>-0.780360,-0.598791,-0.180242</d>
      </elem>
      <elem lid="88">
        <a>0.793353,-0.608761,0.000000</a>
        <d>-0.598791,-0.780360,-0.180242</d>
      </elem>
      <elem lid="89">
        <a>0.923880,-0.382683,0.000000</a>
        <d>-0.376416,-0.908748,-0.180242</d>
      </elem>
      <elem lid="90">
        <a>0.991445,-0.130526,0.000000</a>
        <d>-0.128388,-0.975207,-0.180242</d>
      </elem>
      <elem lid="91">
        <a>0.991445,0.130526,0.000000</a>
        <d>0.128388,-0.975207,-0.180242</d>
      </elem>
      <elem lid="92">
        <a>0.923880,0.382683,0.000000</a>
        <d>0.376416,-0.908748,-0.180242</d>
      </elem>
      <elem lid="93">
        <a>0.793353,0.608761,0.000000</a>
        <d>0.598791,-0.780360,-0.180242</d>
      </elem>
      <elem lid="94">
        <a>0.608761,0.793353,0.000000</a>
        <d>0.780360,-0.598791,-0.180242</d>
      </elem>
      <elem lid="95">
        <a>0.382683,0.923880,0.000000</a>
        <d>0.908748,-0.376416,-0.180242</d>
      </elem>
      <elem lid="96">
        <a>0.130526,0.991445,0.000000</a>
        <d>0.975207,-0.128388,-0.180242</d>
      </elem>
      <elem lid="97">
        <a>-0.130526,0.991445,0.000000</a>
        <d>0.967217,0.127337,-0.219720</d>
      </elem>
      <elem lid="98">
        <a>-0.382683,0.923880,0.000000</a>
        <d>0.901303,0.373332,-0.219720</d>
      </elem>
      <elem lid="99">
        <a>-0.608761,0.793353,0.000000</a>
        <d>0.773966,0.593885,-0.219720</d>
      </elem>
      <elem lid="100">
        <a>-0.793353,0.608761,0.000000</a>
        <d>0.593885,0.773966,-0.219720</d>
      </elem>
      <elem lid="101">
        <a>-0.923880,0.382683,0.000000</a>
        <d>0.373332,0.901303,-0.219720</d>
      </elem>
      <elem lid="102">
        <a>-0.991445,0.130526,0.000000</a>
        <d>0.127337,0.967217,-0.219720</d>
      </elem>
      <elem lid="103">
        <a>-0.991445,-0.130526,0.000000</a>
        <d>-0.127337,0.967217,-0.219720</d>
      </elem>
      <elem lid="104">
        <a>-0.923880,-0.382683,0.000000</a>
        <d>-0.373332,0.901303,-0.219720</d>
      </elem>
      <elem lid="105">
        <a>-0.793353,-0.608761,0.000000</a>
        <d>-0.593885,0.773966,-0.219720</d>
      </elem>
      <elem lid="106">
        <a>-0.608761,-0.793353,0.000000</a>
        <d>-0.773966,0.593885,-0.219720</d>
      </elem>
      <elem lid="107">
        <a>-0.382683,-0.923880,0.000000</a>
        <d>-0.901303,0.373332,-0.219720</d>
      </elem>
      <elem lid="108">
        <a>-0.130526,-0.991445,0.000000</a>
        <d>-0.967217,0.127337,-0.219720</d>
      </elem>
      <elem lid="109">
        <a>0.130526,-0.991445,0.000000</a>
        <d>-0.967217,-0.127337,-0.219720</d>
      </elem>
      <elem lid="110">
        <a>0.382683,-0.923880,0.000000</a>
        <d>-0.901303,-0.373332,-0.219720</d>
      </elem>
      <elem lid="111">
        <a>0.608761,-0.793353,0.000000</a>
        <d>-0.773966,-0.593885,-0.219720</d>
      </elem>
      <elem lid="112">
        <a>0.793353,-0.608761,0.000000</a>
        <d>-0.593885,-0.773966,-0.219720</d>
      </elem>
      <elem lid="113">
        <a>0.923880,-0.382683,0.000000</a>
        <d>-0.373332,-0.901303,-0.219720</d>
      </elem>
      <elem lid="114">
        <a>0.991445,-0.130526,0.000000</a>
        <d>-0.127337,-0.967217,-0.219720</d>
      </elem>
      <elem lid="115">
        <a>0.991445,0.130526,0.000000</a>
        <d>0.127337,-0.967217,-0.219720</d>
      </elem>
      <elem lid="116">
        <a>0.923880,0.382683,0.000000</a>
        <d>0.373332,-0.901303,-0.219720</d>
      </elem>
      <elem lid="117">
        <a>0.793353,0.608761,0.000000</a>
        <d>0.593885,-0.773966,-0.219720</d>
      </elem>
      <elem lid="118">
        <a>0.608761,0.793353,0.000000</a>
        <d>0.773966,-0.593885,-0.219720</d>
      </elem>
      <elem lid="119">
        <a>0.382683,0.923880,0.000000</a>
        <d>0.901303,-0.373332,-0.219720</d>
      </elem>
      <elem lid="120">
        <a>0.130526,0.991445,0.000000</a>
        <d>0.967217,-0.127337,-0.219720</d>
      </elem>
      <elem lid="121">
        <a>-0.130526,0.991445,0.000000</a>
        <d>0.957653,0.126077,-0.258852</d>
      </elem>
      <elem lid="122">
        <a>-0.382683,0.923880,0.000000</a>
        <d>0.892391,0.369640,-0.258852</d>
      </elem>
      <elem lid="123">
        <a>-0.608761,0.793353,0.000000</a>
        <d>0.766313,0.588013,-0.258852</d>
      </elem>
      <elem lid="124">
        <a>-0.793353,0.608761,0.000000</a>
        <d>0.588013,0.766313,-0.258852</d>
      </elem>
      <elem lid="125">
        <a>-0.923880,0.382683,0.000000</a>
        <d>0.369640,0.892391,-0.258852</d>
      </elem>
      <elem lid="126">
        <a>-0.991445,0.130526,0.000000</a>
        <d>0.126077,0.957653,-0.258852</d>
      </elem>
      <elem lid="127">
        <a>-0.991445,-0.130526,0.000000</a>
        <d>-0.126077,0.957653,-0.258852</d>
      </elem>
      <elem lid="128">
        <a>-0.923880,-0.382683,0.000000</a>
        <d>-0.369640,0.892391,-0.258852</d>
      </elem>
      <elem lid="129">
        <a>-0.793353,-0.608761,0.000000</a>
        <d>-0.588013,0.766313,-0.258852</d>
      </elem>
      <elem lid="130">
        <a>-0.608761,-0.793353,0.000000</a>
        <d>-0.766313,0.588013,-0.258852</d>
      </elem>
      <elem lid="131">
        <a>-0.382683,-0.923880,0.000000</a>
        <d>-0.892391,0.369640,-0.258852</d>
      </elem>
      <elem lid="132">
        <a>-0.130526,-0.991445,0.000000</a>
        <d>-0.957653,0.126077,-0.258852</d>
      </elem>
      <elem lid="133">
        <a>0.130526,-0.991445,0.000000</a>
        <d>-0.957653,-0.126077,-0.258852</d>
      </elem>
      <elem lid="134">
        <a>0.382683,-0.923880,0.000000</a>
        <d>-0.892391,-0.369640,-0.258852</d>
      </elem>
      <elem lid="135">
        <a>0.608761,-0.793353,0.000000</a>
        <d>-0.766313,-0.588013,-0.258852</d>
      </elem>
      <elem lid="136">
        <a>0.793353,-0.608761,0.000000</a>
        <d>-0.588013,-0.766313,-0.258852</d>
      </elem>
      <elem lid="137">
        <a>0.923880,-0.382683,0.000000</a>
        <d>-0.369640,-0.892391,-0.258852</d>
      </elem>
      <elem lid="138">
        <a>0.991445,-0.130526,0.000000</a>
        <d>-0.126077,-0.957653,-0.258852</d>
      </elem>
      <elem lid="139">
        <a>0.991445,0.130526,0.000000</a>
        <d>0.126077,-0.957653,-0.258852</d>
      </elem>
      <elem lid="140">
        <a>0.923880,0.382683,0.000000</a>
        <d>0.369640,-0.892391,-0.258852</d>
      </elem>
      <elem lid="141">
        <a>0.793353,0.608761,0.000000</a>
        <d>0.588013,-0.766313,-0.258852</d>
      </elem>
      <elem lid="142">
        <a>0.608761,0.793353,0.000000</a>
        <d>0.766313,-0.588013,-0.258852</d>
      </elem>
      <elem lid="143">
        <a>0.382683,0.923880,0.000000</a>
        <d>0.892391,-0.369640,-0.258852</d>
      </elem>
      <elem lid="144">
        <a>0.130526,0.991445,0.000000</a>
        <d>0.957653,-0.126077,-0.258852</d>
      </elem>
      <elem lid="145">
        <a>-0.130526,0.991445,0.000000</a>
        <d>0.946530,0.124613,-0.297577</d>
      </elem>
      <elem lid="146">
        <a>-0.382683,0.923880,0.000000</a>
        <d>0.882026,0.365347,-0.297577</d>
      </elem>
      <elem lid="147">
        <a>-0.608761,0.793353,0.000000</a>
        <d>0.757413,0.581183,-0.297577</d>
      </elem>
      <elem lid="148">
        <a>-0.793353,0.608761,0.000000</a>
        <d>0.581183,0.757413,-0.297577</d>
      </elem>
      <elem lid="149">
        <a>-0.923880,0.382683,0.000000</a>
        <d>0.365347,0.882026,-0.297577</d>
      </elem>
      <elem lid="150">
        <a>-0.991445,0.130526,0.000000</a>
        <d>0.124613,0.946530,-0.297577</d>
      </elem>
      <elem lid="151">
        <a>-0.991445,-0.130526,0.000000</a>
        <d>-0.124613,0.946530,-0.297577</d>
      </elem>
      <elem lid="152">
        <a>-0.923880,-0.382683,0.000000</a>
        <d>-0.365347,0.882026,-0.297577</d>
      </elem>
      <elem lid="153">
        <a>-0.793353,-0.608761,0.000000</a>
        <d>-0.581183,0.757413,-0.297577</d>
      </elem>
      <elem lid="154">
        <a>-0.608761,-0.793353,0.000000</a>
        <d>-0.757413,0.581183,-0.297577</d>
      </elem>
      <elem lid="155">
        <a>-0.382683,-0.923880,0.000000</a>
        <d>-0.882026,0.365347,-0.297577</d>
      </elem>
      <elem lid="156">
        <a>-0.130526,-0.991445,0.000000</a>
        <d>-0.946530,0.124613,-0.297577</d>
      </elem>
      <elem lid="157">
        <a>0.130526,-0.991445,0.000000</a>
        <d>-0.946530,-0.124613,-0.297577</d>
      </elem>
      <elem lid="158">
        <a>0.382683,-0.923880,0.000000</a>
        <d>-0.882026,-0.365347,-0.297577</d>
      </elem>
      <elem lid="159">
        <a>0.608761,-0.793353,0.000000</a>
        <d>-0.757413,-0.581183,-0.297577</d>
      </elem>
      <elem lid="160">
        <a>0.793353,-0.608761,0.000000</a>
        <d>-0.581183,-0.757413,-0.297577</d>
      </elem>
      <elem lid="161">
        <a>0.923880,-0.382683,0.000000</a>
        <d>-0.365347,-0.882026,-0.297577</d>
      </elem>
      <elem lid="162">
        <a>0.991445,-0.130526,0.000000</a>
        <d>-0.124613,-0.946530,-0.297577</d>
      </elem>
      <elem lid="163">
        <a>0.991445,0.130526,0.000000</a>
        <d>0.124613,-0.946530,-0.297577</d>
      </elem>
      <elem lid="164">
        <a>0.923880,0.382683,0.000000</a>
        <d>0.365347,-0.882026,-0.297577</d>
      </elem>
      <elem lid="165">
        <a>0.793353,0.608761,0.000000</a>
        <d>0.581183,-0.757413,-0.297577</d>
      </elem>
      <elem lid="166">
        <a>0.608761,0.793353,0.000000</a>
        <d>0.757413,-0.581183,-0.297577</d>
      </elem>
      <elem lid="167">
        <a>0.382683,0.923880,0.000000</a>
        <d>0.882026,-0.365347,-0.297577</d>
      </elem>
      <elem lid="168">
        <a>0.130526,0.991445,0.000000</a>
        <d>0.946530,-0.124613,-0.297577</d>
      </elem>
      <elem lid="169">
        <a>-0.130526,0.991445,0.000000</a>
        <d>0.933863,0.122945,-0.335834</d>
      </elem>
      <elem lid="170">
        <a>-0.382683,0.923880,0.000000</a>
        <d>0.870222,0.360458,-0.335834</d>
      </elem>
      <elem lid="171">
        <a>-0.608761,0.793353,0.000000</a>
        <d>0.747276,0.573405,-0.335834</d>
      </elem>
      <elem lid="172">
        <a>-0.793353,0.608761,0.000000</a>
        <d>0.573405,0.747276,-0.335834</d>
      </elem>
      <elem lid="173">
        <a>-0.923880,0.382683,0.000000</a>
        <d>0.360458,0.870222,-0.335834</d>
      </elem>
      <elem lid="174">
        <a>-0.991445,0.130526,0.000000</a>
        <d>0.122945,0.933863,-0.335834</d>
      </elem>
      <elem lid="175">
        <a>-0.991445,-0.130526,0.000000</a>
        <d>-0.122945,0.933863,-0.335834</d>
      </elem>
      <elem lid="176">
        <a>-0.923880,-0.382683,0.000000</a>
        <d>-0.360458,0.870222,-0.335834</d>
      </elem>
      <elem lid="177">
        <a>-0.793353,-0.608761,0.000000</a>
        <d>-0.573405,0.747276,-0.335834</d>
      </elem>
      <elem lid="178">
        <a>-0.608761,-0.793353,0.000000</a>
        <d>-0.747276,0.573405,-0.335834</d>
      </elem>
      <elem lid="179">
        <a>-0.382683,-0.923880,0.000000</a>
        <d>-0.870222,0.360458,-0.335834</d>
      </elem>
      <elem lid="180">
        <a>-0.130526,-0.991445,0.000000</a>
        <d>-0.933863,0.122945,-0.335834</d>
      </elem>
      <elem lid="181">
        <a>0.130526,-0.991445,0.000000</a>
        <d>-0.933863,-0.122945,-0.335834</d>
      </elem>
      <elem lid="182">
        <a>0.382683,-0.923880,0.000000</a>
        <d>-0.870222,-0.360458,-0.335834</d>
      </elem>
      <elem lid="183">
        <a>0.608761,-0.793353,0.000000</a>
        <d>-0.747276,-0.573405,-0.335834</d>
      </elem>
      <elem lid="184">
        <a>0.793353,-0.608761,0.000000</a>
        <d>-0.573405,-0.747276,-0.335834</d>
      </elem>
      <elem lid="185">
        <a>0.923880,-0.382683,0.000000</a>
        <d>-0.360458,-0.870222,-0.335834</d>
      </elem>
      <elem lid="186">
        <a>0.991445,-0.130526,0.000000</a>
        <d>-0.122945,-0.933863,-0.335834</d>
      </elem>
      <elem lid="187">
        <a>0.991445,0.130526,0.000000</a>
        <d>0.122945,-0.933863,-0.335834</d>
      </elem>
      <elem lid="188">
        <a>0.923880,0.382683,0.000000</a>
        <d>0.360458,-0.870222,-0.335834</d>
      </elem>
      <elem lid="189">
        <a>0.793353,0.608761,0.000000</a>
        <d>0.573405,-0.747276,-0.335834</d>
      </elem>
      <elem lid="190">
        <a>0.608761,0.793353,0.000000</a>
        <d>0.747276,-0.573405,-0.335834</d>
      </elem>
      <elem lid="191">
        <a>0.382683,0.923880,0.000000</a>
        <d>0.870222,-0.360458,-0.335834</d>
      </elem>
      <elem lid="192">
        <a>0.130526,0.991445,0.000000</a>
        <d>0.933863,-0.122945,-0.335834</d>
      </elem>
      <elem lid="193">
        <a>-0.130526,0.991445,0.000000</a>
        <d>0.919670,0.121077,-0.373561</d>
      </elem>
      <elem lid="194">
        <a>-0.382683,0.923880,0.000000</a>
        <d>0.856996,0.354979,-0.373561</d>
      </elem>
      <elem lid="195">
        <a>-0.608761,0.793353,0.000000</a>
        <d>0.735919,0.564691,-0.373561</d>
      </elem>
      <elem lid="196">
        <a>-0.793353,0.608761,0.000000</a>
        <d>0.564691,0.735919,-0.373561</d>
      </elem>
      <elem lid="197">
        <a>-0.923880,0.382683,0.000000</a>
        <d>0.354979,0.856996,-0.373561</d>
      </elem>
      <elem lid="198">
        <a>-0.991445,0.130526,0.000000</a>
        <d>0.121077,0.919670,-0.373561</d>
      </elem>
      <elem lid="199">
        <a>-0.991445,-0.130526,0.000000</a>
        <d>-0.121077,0.919670,-0.373561</d>
      </elem>
      <elem lid="200">
        <a>-0.923880,-0.382683,0.000000</a>
        <d>-0.354979,0.856996,-0.373561</d>
      </elem>
      <elem lid="201">
        <a>-0.793353,-0.608761,0.000000</a>
        <d>-0.564691,0.735919,-0.373561</d>
      </elem>
      <elem lid="202">
        <a>-0.608761,-0.793353,0.000000</a>
        <d>-0.735919,0.564691,-0.373561</d>
      </elem>
      <elem lid="203">
        <a>-0.382683,-0.923880,0.000000</a>
        <d>-0.856996,0.354979,-0.373561</d>
      </elem>
      <elem lid="204">
        <a>-0.130526,-0.991445,0.000000</a>
        <d>-0.919670,0.121077,-0.373561</d>
      </elem>
      <elem lid="205">
        <a>0.130526,-0.991445,0.000000</a>
        <d>-0.919670,-0.121077,-0.373561</d>
      </elem>
      <elem lid="206">
        <a>0.382683,-0.923880,0.000000</a>
        <d>-0.856996,-0.354979,-0.373561</d>
      </elem>
      <elem lid="207">
        <a>0.608761,-0.793353,0.000000</a>
        <d>-0.735919,-0.564691,-0.373561</d>
      </elem>
      <elem lid="208">
        <a>0.793353,-0.608761,0.000000</a>
        <d>-0.564691,-0.735919,-0.373561</d>
      </elem>
      <elem lid="209">
        <a>0.923880,-0.382683,0.000000</a>
        <d>-0.354979,-0.856996,-0.373561</d>
      </elem>
      <elem lid="210">
        <a>0.991445,-0.130526,0.000000</a>
        <d>-0.121077,-0.919670,-0.373561</d>
      </elem>
      <elem lid="211">
        <a>0.991445,0.130526,0.000000</a>
        <d>0.121077,-0.919670,-0.373561</d>
      </elem>
      <elem lid="212">
        <a>0.923880,0.382683,0.000000</a>
        <d>0.354979,-0.856996,-0.373561</d>
      </elem>
      <elem lid="213">
        <a>0.793353,0.608761,0.000000</a>
        <d>0.564691,-0.735919,-0.373561</d>
      </elem>
      <elem lid="214">
        <a>0.608761,0.793353,0.000000</a>
        <d>0.735919,-0.564691,-0.373561</d>
      </elem>
      <elem lid="215">
        <a>0.382683,0.923880,0.000000</a>
        <d>0.856996,-0.354979,-0.373561</d>
      </elem>
      <elem lid="216">
        <a>0.130526,0.991445,0.000000</a>
        <d>0.919670,-0.121077,-0.373561</d>
      </elem>
      <elem lid="217">
        <a>-0.130526,0.991445,0.000000</a>
        <d>0.903971,0.119010,-0.410697</d>
      </elem>
      <elem lid="218">
        <a>-0.382683,0.923880,0.000000</a>
        <d>0.842367,0.348920,-0.410697</d>
      </elem>
      <elem lid="219">
        <a>-0.608761,0.793353,0.000000</a>
        <d>0.723357,0.555052,-0.410697</d>
      </elem>
      <elem lid="220">
        <a>-0.793353,0.608761,0.000000</a>
        <d>0.555052,0.723357,-0.410697</d>
      </elem>
      <elem lid="221">
        <a>-0.923880,0.382683,0.000000</a>
        <d>0.348920,0.842367,-0.410697</d>
      </elem>
      <elem lid="222">
        <a>-0.991445,0.130526,0.000000</a>
        <d>0.119010,0.903971,-0.410697</d>
      </elem>
      <elem lid="223">
        <a>-0.991445,-0.130526,0.000000</a>
        <d>-0.119010,0.903971,-0.410697</d>
      </elem>
      <elem lid="224">
        <a>-0.923880,-0.382683,0.000000</a>
        <d>-0.348920,0.842367,-0.410697</d>
      </elem>
      <elem lid="225">
        <a>-0.793353,-0.608761,0.000000</a>
        <d>-0.555052,0.723357,-0.410697</d>
      </elem>
      <elem lid="226">
        <a>-0.608761,-0.793353,0.000000</a>
        <d>-0.723357,0.555052,-0.410697</d>
      </elem>
      <elem lid="227">
        <a>-0.382683,-0.923880,0.000000</a>
        <d>-0.842367,0.348920,-0.410697</d>
      </elem>
      <elem lid="228">
        <a>-0.130526,-0.991445,0.000000</a>
        <d>-0.903971,0.119010,-0.410697</d>
      </elem>
      <elem lid="229">
        <a>0.130526,-0.991445,0.000000</a>
        <d>-0.903971,-0.119010,-0.410697</d>
      </elem>
      <elem lid="230">
        <a>0.382683,-0.923880,0.000000</a>
        <d>-0.842367,-0.348920,-0.410697</d>
      </elem>
      <elem lid="231">
        <a>0.608761,-0.793353,0.000000</a>
        <d>-0.723357,-0.555052,-0.410697</d>
      </elem>
      <elem lid="232">
        <a>0.793353,-0.608761,0.000000</a>
        <d>-0.555052,-0.723357,-0.410697</d>
      </elem>
      <elem lid="233">
        <a>0.923880,-0.382683,0.000000</a>
        <d>-0.348920,-0.842367,-0.410697</d>
      </elem>
      <elem lid="234">
        <a>0.991445,-0.130526,0.000000</a>
        <d>-0.119010,-0.903971,-0.410697</d>
      </elem>
      <elem lid="235">
        <a>0.991445,0.130526,0.000000</a>
        <d>0.119010,-0.903971,-0.410697</d>
      </elem>
      <elem lid="236">
        <a>0.923880,0.382683,0.000000</a>
        <d>0.348920,-0.842367,-0.410697</d>
      </elem>
      <elem lid="237">
        <a>0.793353,0.608761,0.000000</a>
        <d>0.555052,-0.723357,-0.410697</d>
      </elem>
      <elem lid="238">
        <a>0.608761,0.793353,0.000000</a>
        <d>0.723357,-0.555052,-0.410697</d>
      </elem>
      <elem lid="239">
        <a>0.382683,0.923880,0.000000</a>
        <d>0.842367,-0.348920,-0.410697</d>
      </elem>
      <elem lid="240">
        <a>0.130526,0.991445,0.000000</a>
        <d>0.903971,-0.119010,-0.410697</d>
      </elem>
      <elem lid="241">
        <a>-0.130526,0.991445,0.000000</a>
        <d>0.886790,0.116748,-0.447183</d>
      </elem>
      <elem lid="242">
        <a>-0.382683,0.923880,0.000000</a>
        <d>0.826357,0.342288,-0.447183</d>
      </elem>
      <elem lid="243">
        <a>-0.608761,0.793353,0.000000</a>
        <d>0.709609,0.544502,-0.447183</d>
      </elem>
      <elem lid="244">
        <a>-0.793353,0.608761,0.000000</a>
        <d>0.544502,0.709609,-0.447183</d>
      </elem>
      <elem lid="245">
        <a>-0.923880,0.382683,0.000000</a>
        <d>0.342288,0.826357,-0.447183</d>
      </elem>
      <elem lid="246">
        <a>-0.991445,0.130526,0.000000</a>
        <d>0.116748,0.886790,-0.447183</d>
      </elem>
      <elem lid="247">
        <a>-0.991445,-0.130526,0.000000</a>
        <d>-0.116748,0.886790,-0.447183</d>
      </elem>
      <elem lid="248">
        <a>-0.923880,-0.382683,0.000000</a>
        <d>-0.342288,0.826357,-0.447183</d>
      </elem>
      <elem lid="249">
        <a>-0.793353,-0.608761,0.000000</a>
        <d>-0.544502,0.709609,-0.447183</d>
      </elem>
      <elem lid="250">
        <a>-0.608761,-0.793353,0.000000</a>
        <d>-0.709609,0.544502,-0.447183</d>
      </elem>
      <elem lid="251">
        <a>-0.382683,-0.923880,0.000000</a>
        <d>-0.826357,0.342288,-0.447183</d>
      </elem>
      <elem lid="252">
        <a>-0.130526,-0.991445,0.000000</a>
        <d>-0.886790,0.116748,-0.447183</d>
      </elem>
      <elem lid="253">
        <a>0.130526,-0.991445,0.000000</a>
        <d>-0.886790,-0.116748,-0.447183</d>
      </elem>
      <elem lid="254">
        <a>0.382683,-0.923880,0.000000</a>
        <d>-0.826357,-0.342288,-0.447183</d>
      </elem>
      <elem lid="255">
        <a>0.608761,-0.793353,0.000000</a>
        <d>-0.709609,-0.544502,-0.447183</d>
      </elem>
      <elem lid="256">
        <a>0.793353,-0.608761,0.000000</a>
        <d>-0.544502,-0.709609,-0.447183</d>
      </elem>
      <elem lid="257">
        <a>0.923880,-0.382683,0.000000</a>
        <d>-0.342288,-0.826357,-0.447183</d>
      </elem>
      <elem lid="258">
        <a>0.991445,-0.130526,0.000000</a>
        <d>-0.116748,-0.886790,-0.447183</d>
      </elem>
      <elem lid="259">
        <a>0.991445,0.130526,0.000000</a>
        <d>0.116748,-0.886790,-0.447183</d>
      </elem>
      <elem lid="260">
        <a>0.923880,0.382683,0.000000</a>
        <d>0.342288,-0.826357,-0.447183</d>
      </elem>
      <elem lid="261">
        <a>0.793353,0.608761,0.000000</a>
        <d>0.544502,-0.709609,-0.447183</d>
      </elem>
      <elem lid="262">
        <a>0.608761,0.793353,0.000000</a>
        <d>0.709609,-0.544502,-0.447183</d>
      </elem>
      <elem lid="263">
        <a>0.382683,0.923880,0.000000</a>
        <d>0.826357,-0.342288,-0.447183</d>
      </elem>
      <elem lid="264">
        <a>0.130526,0.991445,0.000000</a>
        <d>0.886790,-0.116748,-0.447183</d>
      </elem>
      <elem lid="265">
        <a>-0.130526,0.991445,0.000000</a>
        <d>0.868152,0.114294,-0.482959</d>
      </elem>
      <elem lid="266">
        <a>-0.382683,0.923880,0.000000</a>
        <d>0.808989,0.335094,-0.482959</d>
      </elem>
      <elem lid="267">
        <a>-0.608761,0.793353,0.000000</a>
        <d>0.694694,0.533058,-0.482959</d>
      </elem>
      <elem lid="268">
        <a>-0.793353,0.608761,0.000000</a>
        <d>0.533058,0.694694,-0.482959</d>
      </elem>
      <elem lid="269">
        <a>-0.923880,0.382683,0.000000</a>
        <d>0.335094,0.808989,-0.482959</d>
      </elem>
      <elem lid="270">
        <a>-0.991445,0.130526,0.000000</a>
        <d>0.114294,0.868152,-0.482959</d>
      </elem>
      <elem lid="271">
        <a>-0.991445,-0.130526,0.000000</a>
        <d>-0.114294,0.868152,-0.482959</d>
      </elem>
      <elem lid="272">
        <a>-0.923880,-0.382683,0.000000</a>
        <d>-0.335094,0.808989,-0.482959</d>
      </elem>
      <elem lid="273">
        <a>-0.793353,-0.608761,0.000000</a>
        <d>-0.533058,0.694694,-0.482959</d>
      </elem>
      <elem lid="274">
        <a>-0.608761,-0.793353,0.000000</a>
        <d>-0.694694,0.533058,-0.482959</d>
      </elem>
      <elem lid="275">
        <a>-0.382683,-0.923880,0.000000</a>
        <d>-0.808989,0.335094,-0.482959</d>
      </elem>
      <elem lid="276">
        <a>-0.130526,-0.991445,0.000000</a>
        <d>-0.868152,0.114294,-0.482959</d>
      </elem>
      <elem lid="277">
        <a>0.130526,-0.991445,0.000000</a>
        <d>-0.868152,-0.114294,-0.482959</d>
      </elem>
      <elem lid="278">
        <a>0.382683,-0.923880,0.000000</a>
        <d>-0.808989,-0.335094,-0.482959</d>
      </elem>
      <elem lid="279">
        <a>0.608761,-0.793353,0.000000</a>
        <d>-0.694694,-0.533058,-0.482959</d>
      </elem>
      <elem lid="280">
        <a>0.793353,-0.608761,0.000000</a>
        <d>-0.533058,-0.694694,-0.482959</d>
      </elem>
      <elem lid="281">
        <a>0.923880,-0.382683,0.000000</a>
        <d>-0.335094,-0.808989,-0.482959</d>
      </elem>
      <elem lid="282">
        <a>0.991445,-0.130526,0.000000</a>
        <d>-0.114294,-0.868152,-0.482959</d>
      </elem>
      <elem lid="283">
        <a>0.991445,0.130526,0.000000</a>
        <d>0.114294,-0.868152,-0.482959</d>
      </elem>
      <elem lid="284">
        <a>0.923880,0.382683,0.000000</a>
        <d>0.335094,-0.808989,-0.482959</d>
      </elem>
      <elem lid="285">
        <a>0.793353,0.608761,0.000000</a>
        <d>0.533058,-0.694694,-0.482959</d>
      </elem>
      <elem lid="286">
        <a>0.608761,0.793353,0.000000</a>
        <d>0.694694,-0.533058,-0.482959</d>
      </elem>
      <elem lid="287">
        <a>0.382683,0.923880,0.000000</a>
        <d>0.808989,-0.335094,-0.482959</d>
      </elem>
      <elem lid="288">
        <a>0.130526,0.991445,0.000000</a>
        <d>0.868152,-0.114294,-0.482959</d>
      </elem>
      <elem lid="289">
        <a>-0.130526,0.991445,0.000000</a>
        <d>0.848083,0.111652,-0.517967</d>
      </elem>
      <elem lid="290">
        <a>-0.382683,0.923880,0.000000</a>
        <d>0.790287,0.327348,-0.517967</d>
      </elem>
      <elem lid="291">
        <a>-0.608761,0.793353,0.000000</a>
        <d>0.678635,0.520735,-0.517967</d>
      </elem>
      <elem lid="292">
        <a>-0.793353,0.608761,0.000000</a>
        <d>0.520735,0.678635,-0.517967</d>
      </elem>
      <elem lid="293">
        <a>-0.923880,0.382683,0.000000</a>
        <d>0.327348,0.790287,-0.517967</d>
      </elem>
      <elem lid="294">
        <a>-0.991445,0.130526,0.000000</a>
        <d>0.111652,0.848083,-0.517967</d>
      </elem>
      <elem lid="295">
        <a>-0.991445,-0.130526,0.000000</a>
        <d>-0.111652,0.848083,-0.517967</d>
      </elem>
      <elem lid="296">
        <a>-0.923880,-0.382683,0.000000</a>
        <d>-0.327348,0.790287,-0.517967</d>
      </elem>
      <elem lid="297">
        <a>-0.793353,-0.608761,0.000000</a>
        <d>-0.520735,0.678635,-0.517967</d>
      </elem>
      <elem lid="298">
        <a>-0.608761,-0.793353,0.000000</a>
        <d>-0.678635,0.520735,-0.517967</d>
      </elem>
      <elem lid="299">
        <a>-0.382683,-0.923880,0.000000</a>
        <d>-0.790287,0.327348,-0.517967</d>
      </elem>
      <elem lid="300">
        <a>-0.130526,-0.991445,0.000000</a>
        <d>-0.848083,0.111652,-0.517967</d>
      </elem>
      <elem lid="301">
        <a>0.130526,-0.991445,0.000000</a>
        <d>-0.848083,-0.111652,-0.517967</d>
      </elem>
      <elem lid="302">
        <a>0.382683,-0.923880,0.000000</a>
        <d>-0.790287,-0.327348,-0.517967</d>
      </elem>
      <elem lid="303">
        <a>0.608761,-0.793353,0.000000</a>
        <d>-0.678635,-0.520735,-0.517967</d>
      </elem>
      <elem lid="304">
        <a>0.793353,-0.608761,0.000000</a>
        <d>-0.520735,-0.678635,-0.517967</d>
      </elem>
      <elem lid="305">
        <a>0.923880,-0.382683,0.000000</a>
        <d>-0.327348,-0.790287,-0.517967</d>
      </elem>
      <elem lid="306">
        <a>0.991445,-0.130526,0.000000</a>
        <d>-0.111652,-0.848083,-0.517967</d>
      </elem>
      <elem lid="307">
        <a>0.991445,0.130526,0.000000</a>
        <d>0.111652,-0.848083,-0.517967</d>
      </elem>
      <elem lid="308">
        <a>0.923880,0.382683,0.000000</a>
        <d>0.327348,-0.790287,-0.517967</d>
      </elem>
      <elem lid="309">
        <a>0.793353,0.608761,0.000000</a>
        <d>0.520735,-0.678635,-0.517967</d>
      </elem>
      <elem lid="310">
        <a>0.608761,0.793353,0.000000</a>
        <d>0.678635,-0.520735,-0.517967</d>
      </elem>
      <elem lid="311">
        <a>0.382683,0.923880,0.000000</a>
        <d>0.790287,-0.327348,-0.517967</d>
      </elem>
      <elem lid="312">
        <a>0.130526,0.991445,0.000000</a>
        <d>0.848083,-0.111652,-0.517967</d>
      </elem>
      <elem lid="313">
        <a>-0.130526,0.991445,0.000000</a>
        <d>0.826613,0.108826,-0.552148</d>
      </elem>
      <elem lid="314">
        <a>-0.382683,0.923880,0.000000</a>
        <d>0.770281,0.319061,-0.552148</d>
      </elem>
      <elem lid="315">
        <a>-0.608761,0.793353,0.000000</a>
        <d>0.661455,0.507552,-0.552148</d>
      </elem>
      <elem lid="316">
        <a>-0.793353,0.608761,0.000000</a>
        <d>0.507552,0.661455,-0.552148</d>
      </elem>
      <elem lid="317">
        <a>-0.923880,0.382683,0.000000</a>
        <d>0.319061,0.770281,-0.552148</d>
      </elem>
      <elem lid="318">
        <a>-0.991445,0.130526,0.000000</a>
        <d>0.108826,0.826613,-0.552148</d>
      </elem>
      <elem lid="319">
        <a>-0.991445,-0.130526,0.000000</a>
        <d>-0.108826,0.826613,-0.552148</d>
      </elem>
      <elem lid="320">
        <a>-0.923880,-0.382683,0.000000</a>
        <d>-0.319061,0.770281,-0.552148</d>
      </elem>
      <elem lid="321">
        <a>-0.793353,-0.608761,0.000000</a>
        <d>-0.507552,0.661455,-0.552148</d>
      </elem>
      <elem lid="322">
        <a>-0.608761,-0.793353,0.000000</a>
        <d>-0.661455,0.507552,-0.552148</d>
      </elem>
      <elem lid="323">
        <a>-0.382683,-0.923880,0.000000</a>
        <d>-0.770281,0.319061,-0.552148</d>
      </elem>
      <elem lid="324">
        <a>-0.130526,-0.991445,0.000000</a>
        <d>-0.826613,0.108826,-0.552148</d>
      </elem>
      <elem lid="325">
        <a>0.130526,-0.991445,0.000000</a>
        <d>-0.826613,-0.108826,-0.552148</d>
      </elem>
      <elem lid="326">
        <a>0.382683,-0.923880,0.000000</a>
        <d>-0.770281,-0.319061,-0.552148</d>
      </elem>
      <elem lid="327">
        <a>0.608761,-0.793353,0.000000</a>
        <d>-0.661455,-0.507552,-0.552148</d>
      </elem>
      <elem lid="328">
        <a>0.793353,-0.608761,0.000000</a>
        <d>-0.507552,-0.661455,-0.552148</d>
      </elem>
      <elem lid="329">
        <a>0.923880,-0.382683,0.000000</a>
        <d>-0.319061,-0.770281,-0.552148</d>
      </elem>
      <elem lid="330">
        <a>0.991445,-0.130526,0.000000</a>
        <d>-0.108826,-0.826613,-0.552148</d>
      </elem>
      <elem lid="331">
        <a>0.991445,0.130526,0.000000</a>
        <d>0.108826,-0.826613,-0.552148</d>
      </elem>
      <elem lid="332">
        <a>0.923880,0.382683,0.000000</a>
        <d>0.319061,-0.770281,-0.552148</d>
      </elem>
      <elem lid="333">
        <a>0.793353,0.608761,0.000000</a>
        <d>0.507552,-0.661455,-0.552148</d>
      </elem>
      <elem lid="334">
        <a>0.608761,0.793353,0.000000</a>
        <d>0.661455,-0.507552,-0.552148</d>
      </elem>
      <elem lid="335">
        <a>0.382683,0.923880,0.000000</a>
        <d>0.770281,-0.319061,-0.552148</d>
      </elem>
      <elem lid="336">
        <a>0.130526,0.991445,0.000000</a>
        <d>0.826613,-0.108826,-0.552148</d>
      </elem>
      <elem lid="337">
        <a>-0.130526,0.991445,0.000000</a>
        <d>0.803775,0.105819,-0.585446</d>
      </elem>
      <elem lid="338">
        <a>-0.382683,0.923880,0.000000</a>
        <d>0.748999,0.310246,-0.585446</d>
      </elem>
      <elem lid="339">
        <a>-0.608761,0.793353,0.000000</a>
        <d>0.643180,0.493530,-0.585446</d>
      </elem>
      <elem lid="340">
        <a>-0.793353,0.608761,0.000000</a>
        <d>0.493530,0.643180,-0.585446</d>
      </elem>
      <elem lid="341">
        <a>-0.923880,0.382683,0.000000</a>
        <d>0.310246,0.748999,-0.585446</d>
      </elem>
      <elem lid="342">
        <a>-0.991445,0.130526,0.000000</a>
        <d>0.105819,0.803775,-0.585446</d>
      </elem>
      <elem lid="343">
        <a>-0.991445,-0.130526,0.000000</a>
        <d>-0.105819,0.803775,-0.585446</d>
      </elem>
      <elem lid="344">
        <a>-0.923880,-0.382683,0.000000</a>
        <d>-0.310246,0.748999,-0.585446</d>
      </elem>
      <elem lid="345">
        <a>-0.793353,-0.608761,0.000000</a>
        <d>-0.493530,0.643180,-0.585446</d>
      </elem>
      <elem lid="346">
        <a>-0.608761,-0.793353,0.000000</a>
        <d>-0.643180,0.493530,-0.585446</d>
      </elem>
      <elem lid="347">
        <a>-0.382683,-0.923880,0.000000</a>
        <d>-0.748999,0.310246,-0.585446</d>
      </elem>
      <elem lid="348">
        <a>-0.130526,-0.991445,0.000000</a>
        <d>-0.803775,0.105819,-0.585446</d>
      </elem>
      <elem lid="349">
        <a>0.130526,-0.991445,0.000000</a>
        <d>-0.803775,-0.105819,-0.585446</d>
      </elem>
      <elem lid="350">
        <a>0.382683,-0.923880,0.000000</a>
        <d>-0.748999,-0.310246,-0.585446</d>
      </elem>
      <elem lid="351">
        <a>0.608761,-0.793353,0.000000</a>
        <d>-0.643180,-0.493530,-0.585446</d>
      </elem>
      <elem lid="352">
        <a>0.793353,-0.608761,0.000000</a>
        <d>-0.493530,-0.643180,-0.585446</d>
      </elem>
      <elem lid="353">
        <a>0.923880,-0.382683,0.000000</a>
        <d>-0.310246,-0.748999,-0.585446</d>
      </elem>
      <elem lid="354">
        <a>0.991445,-0.130526,0.000000</a>
        <d>-0.105819,-0.803775,-0.585446</d>
      </elem>
      <elem lid="355">
        <a>0.991445,0.130526,0.000000</a>
        <d>0.105819,-0.803775,-0.585446</d>
      </elem>
      <elem lid="356">
        <a>0.923880,0.382683,0.000000</a>
        <d>0.310246,-0.748999,-0.585446</d>
      </elem>
      <elem lid="357">
        <a>0.793353,0.608761,0.000000</a>
        <d>0.493530,-0.643180,-0.585446</d>
      </elem>
      <elem lid="358">
        <a>0.608761,0.793353,0.000000</a>
        <d>0.643180,-0.493530,-0.585446</d>
      </elem>
      <elem lid="359">
        <a>0.382683,0.923880,0.000000</a>
        <d>0.748999,-0.310246,-0.585446</d>
      </elem>
      <elem lid="360">
        <a>0.130526,0.991445,0.000000</a>
        <d>0.803775,-0.105819,-0.585446</d>
      </elem>
      <elem lid="361">
        <a>-0.130526,0.991445,0.000000</a>
        <d>0.779603,0.102637,-0.617806</d>
      </elem>
      <elem lid="362">
        <a>-0.382683,0.923880,0.000000</a>
        <d>0.726475,0.300916,-0.617806</d>
      </elem>
      <elem lid="363">
        <a>-0.608761,0.793353,0.000000</a>
        <d>0.623838,0.478688,-0.617806</d>
      </elem>
      <elem lid="364">
        <a>-0.793353,0.608761,0.000000</a>
        <d>0.478688,0.623838,-0.617806</d>
      </elem>
      <elem lid="365">
        <a>-0.923880,0.382683,0.000000</a>
        <d>0.300916,0.726475,-0.617806</d>
      </elem>
      <elem lid="366">
        <a>-0.991445,0.130526,0.000000</a>
        <d>0.102637,0.779603,-0.617806</d>
      </elem>
      <elem lid="367">
        <a>-0.991445,-0.130526,0.000000</a>
        <d>-0.102637,0.779603,-0.617806</d>
      </elem>
      <elem lid="368">
        <a>-0.923880,-0.382683,0.000000</a>
        <d>-0.300916,0.726475,-0.617806</d>
      </elem>
      <elem lid="369">
        <a>-0.793353,-0.608761,0.000000</a>
        <d>-0.478688,0.623838,-0.617806</d>
      </elem>
      <elem lid="370">
        <a>-0.608761,-0.793353,0.000000</a>
        <d>-0.623838,0.478688,-0.617806</d>
      </elem>
      <elem lid="371">
        <a>-0.382683,-0.923880,0.000000</a>
        <d>-0.726475,0.300916,-0.617806</d>
      </elem>
      <elem lid="372">
        <a>-0.130526,-0.991445,0.000000</a>
        <d>-0.779603,0.102637,-0.617806</d>
      </elem>
      <elem lid="373">
        <a>0.130526,-0.991445,0.000000</a>
        <d>-0.779603,-0.102637,-0.617806</d>
      </elem>
      <elem lid="374">
        <a>0.382683,-0.923880,0.000000</a>
        <d>-0.726475,-0.300916,-0.617806</d>
      </elem>
      <elem lid="375">
        <a>0.608761,-0.793353,0.000000</a>
        <d>-0.623838,-0.478688,-0.617806</d>
      </elem>
      <elem lid="376">
        <a>0.793353,-0.608761,0.000000</a>
        <d>-0.478688,-0.623838,-0.617806</d>
      </elem>
      <elem lid="377">
        <a>0.923880,-0.382683,0.000000</a>
        <d>-0.300916,-0.726475,-0.617806</d>
      </elem>
      <elem lid="378">
        <a>0.991445,-0.130526,0.000000</a>
        <d>-0.102637,-0.779603,-0.617806</d>
      </elem>
      <elem lid="379">
        <a>0.991445,0.130526,0.000000</a>
        <d>0.102637,-0.779603,-0.617806</d>
      </elem>
      <elem lid="380">
        <a>0.923880,0.382683,0.000000</a>
        <d>0.300916,-0.726475,-0.617806</d>
      </elem>
      <elem lid="381">
        <a>0.793353,0.608761,0.000000</a>
        <d>0.478688,-0.623838,-0.617806</d>
      </elem>
      <elem lid="382">
        <a>0.608761,0.793353,0.000000</a>
        <d>0.623838,-0.478688,-0.617806</d>
      </elem>
      <elem lid="383">
        <a>0.382683,0.923880,0.000000</a>
        <d>0.726475,-0.300916,-0.617806</d>
      </elem>
      <elem lid="384">
        <a>0.130526,0.991445,0.000000</a>
        <d>0.779603,-0.102637,-0.617806</d>
      </elem>
      <elem lid="385">
        <a>-0.130526,0.991445,0.000000</a>
        <d>0.754134,0.099284,-0.649173</d>
      </elem>
      <elem lid="386">
        <a>-0.382683,0.923880,0.000000</a>
        <d>0.702741,0.291085,-0.649173</d>
      </elem>
      <elem lid="387">
        <a>-0.608761,0.793353,0.000000</a>
        <d>0.603457,0.463049,-0.649173</d>
      </elem>
      <elem lid="388">
        <a>-0.793353,0.608761,0.000000</a>
        <d>0.463049,0.603457,-0.649173</d>
      </elem>
      <elem lid="389">
        <a>-0.923880,0.382683,0.000000</a>
        <d>0.291085,0.702741,-0.649173</d>
      </elem>
      <elem lid="390">
        <a>-0.991445,0.130526,0.000000</a>
        <d>0.099284,0.754134,-0.649173</d>
      </elem>
      <elem lid="391">
        <a>-0.991445,-0.130526,0.000000</a>
        <d>-0.099284,0.754134,-0.649173</d>
      </elem>
      <elem lid="392">
        <a>-0.923880,-0.382683,0.000000</a>
        <d>-0.291085,0.702741,-0.649173</d>
      </elem>
      <elem lid="393">
        <a>-0.793353,-0.608761,0.000000</a>
        <d>-0.463049,0.603457,-0.649173</d>
      </elem>
      <elem lid="394">
        <a>-0.608761,-0.793353,0.000000</a>
        <d>-0.603457,0.463049,-0.649173</d>
      </elem>
      <elem lid="395">
        <a>-0.382683,-0.923880,0.000000</a>
        <d>-0.702741,0.291085,-0.649173</d>
      </elem>
      <elem lid="396">
        <a>-0.130526,-0.991445,0.000000</a>
        <d>-0.754134,0.099284,-0.649173</d>
      </elem>
      <elem lid="397">
        <a>0.130526,-0.991445,0.000000</a>
        <d>-0.754134,-0.099284,-0.649173</d>
      </elem>
      <elem lid="398">
        <a>0.382683,-0.923880,0.000000</a>
        <d>-0.702741,-0.291085,-0.649173</d>
      </elem>
      <elem lid="399">
        <a>0.608761,-0.793353,0.000000</a>
        <d>-0.603457,-0.463049,-0.649173</d>
      </elem>
      <elem lid="400">
        <a>0.793353,-0.608761,0.000000</a>
        <d>-0.463049,-0.603457,-0.649173</d>
      </elem>
      <elem lid="401">
        <a>0.923880,-0.382683,0.000000</a>
        <d>-0.291085,-0.702741,-0.649173</d>
      </elem>
      <elem lid="402">
        <a>0.991445,-0.130526,0.000000</a>
        <d>-0.099284,-0.754134,-0.649173</d>
      </elem>
      <elem lid="403">
        <a>0.991445,0.130526,0.000000</a>
        <d>0.099284,-0.754134,-0.649173</d>
      </elem>
      <elem lid="404">
        <a>0.923880,0.382683,0.000000</a>
        <d>0.291085,-0.702741,-0.649173</d>
      </elem>
      <elem lid="405">
        <a>0.793353,0.608761,0.000000</a>
        <d>0.463049,-0.603457,-0.649173</d>
      </elem>
      <elem lid="406">
        <a>0.608761,0.793353,0.000000</a>
        <d>0.603457,-0.463049,-0.649173</d>
      </elem>
      <elem lid="407">
        <a>0.382683,0.923880,0.000000</a>
        <d>0.702741,-0.291085,-0.649173</d>
      </elem>
      <elem lid="408">
        <a>0.130526,0.991445,0.000000</a>
        <d>0.754134,-0.099284,-0.649173</d>
      </elem>
      <elem lid="409">
        <a>-0.130526,0.991445,0.000000</a>
        <d>0.727406,0.095765,-0.679493</d>
      </elem>
      <elem lid="410">
        <a>-0.382683,0.923880,0.000000</a>
        <d>0.677834,0.280768,-0.679493</d>
      </elem>
      <elem lid="411">
        <a>-0.608761,0.793353,0.000000</a>
        <d>0.582069,0.446638,-0.679493</d>
      </elem>
      <elem lid="412">
        <a>-0.793353,0.608761,0.000000</a>
        <d>0.446638,0.582069,-0.679493</d>
      </elem>
      <elem lid="413">
        <a>-0.923880,0.382683,0.000000</a>
        <d>0.280768,0.677834,-0.679493</d>
      </elem>
      <elem lid="414">
        <a>-0.991445,0.130526,0.000000</a>
        <d>0.095765,0.727406,-0.679493</d>
      </elem>
      <elem lid="415">
        <a>-0.991445,-0.130526,0.000000</a>
        <d>-0.095765,0.727406,-0.679493</d>
      </elem>
      <elem lid="416">
        <a>-0.923880,-0.382683,0.000000</a>
        <d>-0.280768,0.677834,-0.679493</d>
      </elem>
      <elem lid="417">
        <a>-0.793353,-0.608761,0.000000</a>
        <d>-0.446638,0.582069,-0.679493</d>
      </elem>
      <elem lid="418">
        <a>-0.608761,-0.793353,0.000000</a>
        <d>-0.582069,0.446638,-0.679493</d>
      </elem>
      <elem lid="419">
        <a>-0.382683,-0.923880,0.000000</a>
        <d>-0.677834,0.280768,-0.679493</d>
      </elem>
      <elem lid="420">
        <a>-0.130526,-0.991445,0.000000</a>
        <d>-0.727406,0.095765,-0.679493</d>
      </elem>
      <elem lid="421">
        <a>0.130526,-0.991445,0.000000</a>
        <d>-0.727406,-0.095765,-0.679493</d>
      </elem>
      <elem lid="422">
        <a>0.382683,-0.923880,0.000000</a>
        <d>-0.677834,-0.280768,-0.679493</d>
      </elem>
      <elem lid="423">
        <a>0.608761,-0.793353,0.000000</a>
        <d>-0.582069,-0.446638,-0.679493</d>
      </elem>
      <elem lid="424">
        <a>0.793353,-0.608761,0.000000</a>
        <d>-0.446638,-0.582069,-0.679493</d>
      </elem>
      <elem lid="425">
        <a>0.923880,-0.382683,0.000000</a>
        <d>-0.280768,-0.677834,-0.679493</d>
      </elem>
      <elem lid="426">
        <a>0.991445,-0.130526,0.000000</a>
        <d>-0.095765,-0.727406,-0.679493</d>
      </elem>
      <elem lid="427">
        <a>0.991445,0.130526,0.000000</a>
        <d>0.095765,-0.727406,-0.679493</d>
      </elem>
      <elem lid="428">
        <a>0.923880,0.382683,0.000000</a>
        <d>0.280768,-0.677834,-0.679493</d>
      </elem>
      <elem lid="429">
        <a>0.793353,0.608761,0.000000</a>
        <d>0.446638,-0.582069,-0.679493</d>
      </elem>
      <elem lid="430">
        <a>0.608761,0.793353,0.000000</a>
        <d>0.582069,-0.446638,-0.679493</d>
      </elem>
      <elem lid="431">
        <a>0.382683,0.923880,0.000000</a>
        <d>0.677834,-0.280768,-0.679493</d>
      </elem>
      <elem lid="432">
        <a>0.130526,0.991445,0.000000</a>
        <d>0.727406,-0.095765,-0.679493</d>
      </elem>
      <elem lid="433">
        <a>-0.130526,0.991445,0.000000</a>
        <d>0.699460,0.092086,-0.708714</d>
      </elem>
      <elem lid="434">
        <a>-0.382683,0.923880,0.000000</a>
        <d>0.651793,0.269982,-0.708714</d>
      </elem>
      <elem lid="435">
        <a>-0.608761,0.793353,0.000000</a>
        <d>0.559708,0.429479,-0.708714</d>
      </elem>
      <elem lid="436">
        <a>-0.793353,0.608761,0.000000</a>
        <d>0.429479,0.559708,-0.708714</d>
      </elem>
      <elem lid="437">
        <a>-0.923880,0.382683,0.000000</a>
        <d>0.269982,0.651793,-0.708714</d>
      </elem>
      <elem lid="438">
        <a>-0.991445,0.130526,0.000000</a>
        <d>0.092086,0.699460,-0.708714</d>
      </elem>
      <elem lid="439">
        <a>-0.991445,-0.130526,0.000000</a>
        <d>-0.092086,0.699460,-0.708714</d>
      </elem>
      <elem lid="440">
        <a>-0.923880,-0.382683,0.000000</a>
        <d>-0.269982,0.651793,-0.708714</d>
      </elem>
      <elem lid="441">
        <a>-0.793353,-0.608761,0.000000</a>
        <d>-0.429479,0.559708,-0.708714</d>
      </elem>
      <elem lid="442">
        <a>-0.608761,-0.793353,0.000000</a>
        <d>-0.559708,0.429479,-0.708714</d>
      </elem>
      <elem lid="443">
        <a>-0.382683,-0.923880,0.000000</a>
        <d>-0.651793,0.269982,-0.708714</d>
      </elem>
      <elem lid="444">
        <a>-0.130526,-0.991445,0.000000</a>
        <d>-0.699460,0.092086,-0.708714</d>
      </elem>
      <elem lid="445">
        <a>0.130526,-0.991445,0.000000</a>
        <d>-0.699460,-0.092086,-0.708714</d>
      </elem>
      <elem lid="446">
        <a>0.382683,-0.923880,0.000000</a>
        <d>-0.651793,-0.269982,-0.708714</d>
      </elem>
      <elem lid="447">
        <a>0.608761,-0.793353,0.000000</a>
        <d>-0.559708,-0.429479,-0.708714</d>
      </elem>
      <elem lid="448">
        <a>0.793353,-0.608761,0.000000</a>
        <d>-0.429479,-0.559708,-0.708714</d>
      </elem>
      <elem lid="449">
        <a>0.923880,-0.382683,0.000000</a>
        <d>-0.269982,-0.651793,-0.708714</d>
      </elem>
      <elem lid="450">
        <a>0.991445,-0.130526,0.000000</a>
        <d>-0.092086,-0.699460,-0.708714</d>
      </elem>
      <elem lid="451">
        <a>0.991445,0.130526,0.000000</a>
        <d>0.092086,-0.699460,-0.708714</d>
      </elem>
      <elem lid="452">
        <a>0.923880,0.382683,0.000000</a>
        <d>0.269982,-0.651793,-0.708714</d>
      </elem>
      <elem lid="453">
        <a>0.793353,0.608761,0.000000</a>
        <d>0.429479,-0.559708,-0.708714</d>
      </elem>
      <elem lid="454">
        <a>0.608761,0.793353,0.000000</a>
        <d>0.559708,-0.429479,-0.708714</d>
      </elem>
      <elem lid="455">
        <a>0.382683,0.923880,0.000000</a>
        <d>0.651793,-0.269982,-0.708714</d>
      </elem>
      <elem lid="456">
        <a>0.130526,0.991445,0.000000</a>
        <d>0.699460,-0.092086,-0.708714</d>
      </elem>
    </ElementData>
  </MeshData>
  <Boundary>
    <bc name="FixLimbus" type="zero displacement" node_set="LimbalNodes">
      <x_dof>1</x_dof>
      <y_dof>1</y_dof>
      <z_dof>1</z_dof>
    </bc>
    <bc name="FixICRS_XY" type="zero displacement" node_set="ICRSNodes_XY">
      <x_dof>1</x_dof>
      <y_dof>1</y_dof>
      <z_dof>0</z_dof>
    </bc>
    <bc name="PrescribeICRS_Volume" type="prescribed displacement" node_set="ICRSNodes_XY">
      <dof>z</dof>
      <value lc="1">0.250</value>
    </bc>
  </Boundary>
  <Loads>
    <surface_load name="IOP" type="pressure" surface="PosteriorSurface">
      <pressure lc="1">-0.002</pressure>
      <symmetric_stiffness>1</symmetric_stiffness>
      <linear>0</linear>
    </surface_load>
  </Loads>
  <LoadData>
    <load_controller id="1" type="loadcurve">
      <interpolate>LINEAR</interpolate>
      <extend>CONSTANT</extend>
      <points>
        <pt>0,0</pt>
        <pt>1,1</pt>
      </points>
    </load_controller>
  </LoadData>
  <Output>
    <plotfile type="febio">
      <var type="displacement"/>
      <var type="stress"/>
    </plotfile>
    <logfile>
      <node_data data="ux;uy;uz" delim="," file="mat_c_5_0.100_geom_arc_120_nodes.csv">1,2,3,4,5,6,7,8,9,10,11,12,13,14,15,16,17,18,19,20,21,22,23,24,25,26,27,28,29,30,31,32,33,34,35,36,37,38,39,40,41,42,43,44,45,46,47,48,49,50,51,52,53,54,55,56,57,58,59,60,61,62,63,64,65,66,67,68,69,70,71,72,73,74,75,76,77,78,79,80,81,82,83,84,85,86,87,88,89,90,91,92,93,94,95,96,97,98,99,100,101,102,103,104,105,1
      <element_data data="sx;sy;sz;sxy;syz;sxz" delim="," file="mat_c_5_0.100_geom_arc_120_elems.csv">265,266,267,268,269,270,271,272,273,274,275,276,277,278,279,280,281,282,283,284,285,286,287,288,289,290,291,292,293,294,295,296,297,298,299,300,301,302,303,304,305,306,307,308,309,310,311,312,313,314,315,316,317,318,319,320,321,322,323,324,325,326,327,328,329,330,331,332,333,334,335,336,337,338,33
    </logfile>
  </Output>
</febio_spec>