<?xml version="1.0" encoding="ISO-8859-1"?>
<febio_spec version="4.0">
  <Module type="solid"/>
  <Control>
    <analysis>STATIC</analysis>
    <time_steps>1</time_steps>
    <step_size>1</step_size>
    <solver type="solid">
      <symmetric_stiffness>symmetric</symmetric_stiffness>
      <dtol>0.001</dtol>
      <etol>0.01</etol>
      <rtol>0</rtol>
      <max_refs>15</max_refs>
    </solver>
  </Control>
  <Material>
    <material id="1" name="T" type="neo-Hookean">
      <E>1.0</E>
      <v>0.3</v>
    </material>
  </Material>
  <Mesh>
    <Nodes name="Obj">
      <node id="1">0,0,0.0</node>
      <node id="2">0,0,0.5</node>
      <node id="3">1.000000,0.000000,0.000000</node>
      <node id="4">0.000000,1.000000,0.000000</node>
      <node id="5">-1.000000,0.000000,0.000000</node>
      <node id="6">-0.000000,-1.000000,0.000000</node>
      <node id="7">2.000000,0.000000,0.000000</node>
      <node id="8">0.000000,2.000000,0.000000</node>
      <node id="9">-2.000000,0.000000,0.000000</node>
      <node id="10">-0.000000,-2.000000,0.000000</node>
      <node id="11">1.000000,0.000000,0.500000</node>
      <node id="12">0.000000,1.000000,0.500000</node>
      <node id="13">-1.000000,0.000000,0.500000</node>
      <node id="14">-0.000000,-1.000000,0.500000</node>
      <node id="15">2.000000,0.000000,0.500000</node>
      <node id="16">0.000000,2.000000,0.500000</node>
      <node id="17">-2.000000,0.000000,0.500000</node>
      <node id="18">-0.000000,-2.000000,0.500000</node>
    </Nodes>
    <Elements type="hex8" name="Body">
      <elem id="1">3,7,8,4,11,15,16,12</elem>
      <elem id="2">4,8,9,5,12,16,17,13</elem>
      <elem id="3">5,9,10,6,13,17,18,14</elem>
      <elem id="4">6,10,7,3,14,18,15,11</elem>
    </Elements>
    <NodeSet name="Fix">7, 15, 8, 16, 9, 17, 10, 18</NodeSet>
  </Mesh>
  <MeshDomains>
    <SolidDomain name="Body" mat="T"/>
  </MeshDomains>
  <Boundary>
    <bc name="Fix" type="zero displacement" node_set="Fix">
      <x_dof>1</x_dof>
      <y_dof>1</y_dof>
      <z_dof>1</z_dof>
    </bc>
  </Boundary>
</febio_spec>