<?xml version="1.0" encoding="UTF-8"?>
<febio_spec version="4.0">
  <Module type="solid"/>

  <Control>
    <analysis>STATIC</analysis>
    <time_steps>10</time_steps>
    <step_size>0.1</step_size>
    <plot_stride>1</plot_stride>
    <solver type="solid">
      <max_refs>15</max_refs>
      <dtol>0.001</dtol>
      <etol>0.01</etol>
    </solver>
  </Control>

  <Material>
    <material id="1" name="Cornea_Normal" type="Mooney-Rivlin">
      <c1>0.08</c1>
      <c2>0.01</c2>
      <k>4.76</k>
    </material>
    <material id="2" name="Cornea_IT" type="Mooney-Rivlin">
      <c1>0.045</c1>
      <c2>0.006</c2>
      <k>4.76</k>
    </material>
  </Material>

  <Mesh>
    <Nodes name="AllNodes">
      <node id="1">0.000000,0.000000,-0.000000</node>
      <node id="2">0.000000,0.000000,-0.000000</node>
      <node id="3">0.000000,0.000000,-0.000000</node>
      <node id="4">0.000000,0.000000,-0.000000</node>
      <node id="5">0.000000,0.000000,-0.000000</node>
      <node id="6">0.000000,0.000000,-0.000000</node>
      <node id="7">0.000000,0.000000,-0.000000</node>
      <node id="8">-0.000000,0.000000,-0.000000</node>
      <node id="9">-0.000000,0.000000,-0.000000</node>
      <node id="10">-0.000000,0.000000,-0.000000</node>
      <node id="11">-0.000000,0.000000,-0.000000</node>
      <node id="12">-0.000000,0.000000,-0.000000</node>
      <node id="13">-0.000000,0.000000,-0.000000</node>
      <node id="14">-0.000000,-0.000000,-0.000000</node>
      <node id="15">-0.000000,-0.000000,-0.000000</node>
      <node id="16">-0.000000,-0.000000,-0.000000</node>
      <node id="17">-0.000000,-0.000000,-0.000000</node>
      <node id="18">-0.000000,-0.000000,-0.000000</node>
      <node id="19">-0.000000,-0.000000,-0.000000</node>
      <node id="20">0.000000,-0.000000,-0.000000</node>
<!-- ... 485 like lines cut -->
    </Nodes>

    <Elements type="quad4" name="ElemNormal" mat="1">
      <elem id="1">505,25,26,505</elem>
      <elem id="2">505,26,27,505</elem>
      <elem id="3">505,27,28,505</elem>
      <elem id="4">505,28,29,505</elem>
      <elem id="5">505,29,30,505</elem>
      <elem id="6">505,30,31,505</elem>
      <elem id="7">505,31,32,505</elem>
      <elem id="8">505,32,33,505</elem>
      <elem id="9">505,33,34,505</elem>
      <elem id="10">505,34,35,505</elem>
      <elem id="11">505,35,36,505</elem>
      <elem id="12">505,36,37,505</elem>
      <elem id="13">505,37,38,505</elem>
      <elem id="14">505,38,39,505</elem>
      <elem id="21">505,45,46,505</elem>
      <elem id="22">505,46,47,505</elem>
      <elem id="23">505,47,48,505</elem>
      <elem id="24">505,48,25,505</elem>
      <elem id="25">25,49,50,26</elem>
      <elem id="26">26,50,51,27</elem>
<!-- ... 340 like lines cut -->
    </Elements>

    <Elements type="quad4" name="ElemIT" mat="2">
      <elem id="15">505,39,40,505</elem>
      <elem id="16">505,40,41,505</elem>
      <elem id="17">505,41,42,505</elem>
      <elem id="18">505,42,43,505</elem>
      <elem id="19">505,43,44,505</elem>
      <elem id="20">505,44,45,505</elem>
      <elem id="39">39,63,64,40</elem>
      <elem id="40">40,64,65,41</elem>
      <elem id="41">41,65,66,42</elem>
      <elem id="42">42,66,67,43</elem>
      <elem id="43">43,67,68,44</elem>
      <elem id="44">44,68,69,45</elem>
      <elem id="63">63,87,88,64</elem>
      <elem id="64">64,88,89,65</elem>
      <elem id="65">65,89,90,66</elem>
      <elem id="66">66,90,91,67</elem>
      <elem id="67">67,91,92,68</elem>
      <elem id="68">68,92,93,69</elem>
      <elem id="87">87,111,112,88</elem>
      <elem id="88">88,112,113,89</elem>
<!-- ... 100 like lines cut -->
    </Elements>

    <Surface name="CornealFace">
      <quad4 id="1">505,25,26,505</quad4>
      <quad4 id="2">505,26,27,505</quad4>
      <quad4 id="3">505,27,28,505</quad4>
      <quad4 id="4">505,28,29,505</quad4>
      <quad4 id="5">505,29,30,505</quad4>
      <quad4 id="6">505,30,31,505</quad4>
      <quad4 id="7">505,31,32,505</quad4>
      <quad4 id="8">505,32,33,505</quad4>
      <quad4 id="9">505,33,34,505</quad4>
      <quad4 id="10">505,34,35,505</quad4>
      <quad4 id="11">505,35,36,505</quad4>
      <quad4 id="12">505,36,37,505</quad4>
      <quad4 id="13">505,37,38,505</quad4>
      <quad4 id="14">505,38,39,505</quad4>
      <quad4 id="15">505,39,40,505</quad4>
      <quad4 id="16">505,40,41,505</quad4>
      <quad4 id="17">505,41,42,505</quad4>
      <quad4 id="18">505,42,43,505</quad4>
      <quad4 id="19">505,43,44,505</quad4>
      <quad4 id="20">505,44,45,505</quad4>
<!-- ... 460 like lines cut -->
    </Surface>

    <NodeSet name="Limbus">
      481,482,483,484,485,486,487,488,489,490,491,492,493,494,495,496,497,498,499,500,501,502,503,504
    </NodeSet>
  </Mesh>

  <MeshDomains>
    <ShellDomain name="ElemNormal" mat="Cornea_Normal">
      <shell_thickness>0.55</shell_thickness>
    </ShellDomain>
    <ShellDomain name="ElemIT" mat="Cornea_IT">
      <shell_thickness>0.55</shell_thickness>
    </ShellDomain>
  </MeshDomains>

  <Boundary>
    <bc name="FixLimbus" type="zero displacement" node_set="Limbus">
      <x_dof>1</x_dof>
      <y_dof>1</y_dof>
      <z_dof>1</z_dof>
    </bc>
  </Boundary>

  <Loads>
    <surface_load name="IOP_Load" type="pressure" surface="CornealFace">
      <pressure lc="1">0.00199983</pressure>
      <linear>0</linear>
    </surface_load>
  </Loads>

  <LoadData>
    <load_controller id="1" type="loadcurve">
      <interpolate>LINEAR</interpolate>
      <extend>CONSTANT</extend>
      <points>
        <pt>0,0</pt>
        <pt>1,1</pt>
      </points>
    </load_controller>
  </LoadData>

  <Output>
    <plotfile type="febio">
      <var type="displacement"/>
      <var type="stress"/>
      <var type="strain energy density"/>
    </plotfile>
    <logfile>
      <element_data file="stress_out.csv" data="sx;sy;sxy" delim=","/>
      <node_data file="disp_out.csv" data="ux;uy;uz" delim=","/>
    </logfile>
  </Output>

</febio_spec>