<?xml version="1.0" encoding="ISO-8859-1"?>
<febio_spec version="4.0">
  <Material>
    <material id="1" name="Cornea_HGO" type="solid mixture">
      <!-- Matriz Isotrópica (Ground Substance) -->
      <solid type="neo-Hookean">
        <E>0.5</E>
        <v>0.49</v>
      </solid>
      <!-- Lamelas Radiais (Fibras) -->
      <solid type="continuous fiber distribution">
        <fibers type="2D Von Mises">
           <b active="0">1.0</b>
        </fibers>
        <distribution type="radial"/>
      </solid>
      <!-- Lamelas Tangenciais (Annulus Limbal) -->
      <solid type="continuous fiber distribution">
        <fibers type="2D Von Mises">
           <b active="0">1.0</b>
        </fibers>
        <distribution type="tangential"/>
      </solid>
    </material>
  </Material>
  <Mesh>
    <Nodes name="CorneaNodes">
      <node id="1">0.00000,0.00000,0.00000</node>
      <node id="2">0.30000,0.00000,-0.00704</node>
      <node id="3">0.28978,0.07765,-0.00704</node>
      <node id="4">0.25981,0.15000,-0.00704</node>
      <node id="5">0.21213,0.21213,-0.00704</node>
      <node id="6">0.15000,0.25981,-0.00704</node>
      <node id="7">0.07765,0.28978,-0.00704</node>
      <node id="8">0.00000,0.30000,-0.00704</node>
      <node id="9">-0.07765,0.28978,-0.00704</node>
      <node id="10">-0.15000,0.25981,-0.00704</node>
      <node id="11">-0.21213,0.21213,-0.00704</node>
      <node id="12">-0.25981,0.15000,-0.00704</node>
      <node id="13">-0.28978,0.07765,-0.00704</node>
      <node id="14">-0.30000,0.00000,-0.00704</node>
      <node id="15">-0.28978,-0.07765,-0.00704</node>
      <node id="16">-0.25981,-0.15000,-0.00704</node>
      <node id="17">-0.21213,-0.21213,-0.00704</node>
      <node id="18">-0.15000,-0.25981,-0.00704</node>
      <node id="19">-0.07765,-0.28978,-0.00704</node>
      <node id="20">-0.00000,-0.30000,-0.00704</node>
<!-- ... 942 like lines cut -->
    </Nodes>
    <NodeSet name="Limbus">
      458,459,460,461,462,463,464,465,466,467,468,469,470,471,472,473,474,475,476,477,478,479,480,481,939,940,941,942,943,944,945,946,947,948,949,950,951,952,953,954,955,956,957,958,959,960,961,962
    </NodeSet>
  </Mesh>
  <MeshDomains>
    <SolidDomain name="Estroma" mat="Cornea_HGO"/>
  </MeshDomains>
  <Boundary>
    <bc name="FixLimbus" type="zero displacement" node_set="Limbus">
      <x_dof>1</x_dof>
      <y_dof>1</y_dof>
      <z_dof>1</z_dof>
    </bc>
  </Boundary>
  <Loads>
    <surface_load name="IOP_Load" type="pressure" surface="Endotelio">
      <pressure lc="1">0.00199983</pressure>
      <linear>0</linear>
    </surface_load>
  </Loads>
  <LoadData>
    <load_controller id="1" type="loadcurve">
      <points>
        <pt>0,0</pt>
        <pt>1,1</pt>
      </points>
    </load_controller>
  </LoadData>
</febio_spec>