<?xml version="1.0" encoding="ISO-8859-1"?>
<febio_spec version="4.0">
  <Module type="solid"/>
  <Control>
    <analysis>STATIC</analysis>
    <time_steps>20</time_steps>
    <step_size>0.05</step_size>
    <plot_stride>1</plot_stride>
    <solver type="solid">
      <max_refs>25</max_refs>
      <dtol>0.001</dtol>
      <etol>0.01</etol>
    </solver>
  </Control>
  <Material>
    <material id="1" name="Cornea_HGO" type="Mooney-Rivlin">
      <c1>0.08</c1>
      <c2>0.01</c2>
      <k>4.76</k>
    </material>
  </Material>
  <Mesh>
    <Nodes name="CorneaNodes">
      <node id="1">0.00000,0.00000,0.00000</node>
      <node id="2">0.30000,0.00000,-0.00704</node>
      <node id="3">0.28978,0.07765,-0.00704</node>
      <node id="4">0.25981,0.15000,-0.00704</node>
      <node id="5">0.21213,0.21213,-0.00704</node>
      <node id="6">0.15000,0.25981,-0.00704</node>
      <node id="7">0.07765,0.28978,-0.00704</node>
      <node id="8">0.00000,0.30000,-0.00704</node>
      <node id="9">-0.07765,0.28978,-0.00704</node>
      <node id="10">-0.15000,0.25981,-0.00704</node>
      <node id="11">-0.21213,0.21213,-0.00704</node>
      <node id="12">-0.25981,0.15000,-0.00704</node>
      <node id="13">-0.28978,0.07765,-0.00704</node>
      <node id="14">-0.30000,0.00000,-0.00704</node>
      <node id="15">-0.28978,-0.07765,-0.00704</node>
      <node id="16">-0.25981,-0.15000,-0.00704</node>
      <node id="17">-0.21213,-0.21213,-0.00704</node>
      <node id="18">-0.15000,-0.25981,-0.00704</node>
      <node id="19">-0.07765,-0.28978,-0.00704</node>
      <node id="20">-0.00000,-0.30000,-0.00704</node>
<!-- ... 942 like lines cut -->
    </Nodes>
    <Elements type="penta6" name="ApexWedges">
      <elem id="1">1,2,3,482,483,484</elem>
      <elem id="2">1,3,4,482,484,485</elem>
      <elem id="3">1,4,5,482,485,486</elem>
      <elem id="4">1,5,6,482,486,487</elem>
      <elem id="5">1,6,7,482,487,488</elem>
      <elem id="6">1,7,8,482,488,489</elem>
      <elem id="7">1,8,9,482,489,490</elem>
      <elem id="8">1,9,10,482,490,491</elem>
      <elem id="9">1,10,11,482,491,492</elem>
      <elem id="10">1,11,12,482,492,493</elem>
      <elem id="11">1,12,13,482,493,494</elem>
      <elem id="12">1,13,14,482,494,495</elem>
      <elem id="13">1,14,15,482,495,496</elem>
      <elem id="14">1,15,16,482,496,497</elem>
      <elem id="15">1,16,17,482,497,498</elem>
      <elem id="16">1,17,18,482,498,499</elem>
      <elem id="17">1,18,19,482,499,500</elem>
      <elem id="18">1,19,20,482,500,501</elem>
      <elem id="19">1,20,21,482,501,502</elem>
      <elem id="20">1,21,22,482,502,503</elem>
<!-- ... 4 like lines cut -->
    </Elements>
    <Elements type="hex8" name="BodyHex">
      <elem id="25">3,2,26,27,484,483,507,508</elem>
      <elem id="26">4,3,27,28,485,484,508,509</elem>
      <elem id="27">5,4,28,29,486,485,509,510</elem>
      <elem id="28">6,5,29,30,487,486,510,511</elem>
      <elem id="29">7,6,30,31,488,487,511,512</elem>
      <elem id="30">8,7,31,32,489,488,512,513</elem>
      <elem id="31">9,8,32,33,490,489,513,514</elem>
      <elem id="32">10,9,33,34,491,490,514,515</elem>
      <elem id="33">11,10,34,35,492,491,515,516</elem>
      <elem id="34">12,11,35,36,493,492,516,517</elem>
      <elem id="35">13,12,36,37,494,493,517,518</elem>
      <elem id="36">14,13,37,38,495,494,518,519</elem>
      <elem id="37">15,14,38,39,496,495,519,520</elem>
      <elem id="38">16,15,39,40,497,496,520,521</elem>
      <elem id="39">17,16,40,41,498,497,521,522</elem>
      <elem id="40">18,17,41,42,499,498,522,523</elem>
      <elem id="41">19,18,42,43,500,499,523,524</elem>
      <elem id="42">20,19,43,44,501,500,524,525</elem>
      <elem id="43">21,20,44,45,502,501,525,526</elem>
      <elem id="44">22,21,45,46,503,502,526,527</elem>
<!-- ... 436 like lines cut -->
    </Elements>
    <Surface name="Endotelio">
      <tri3 id="1">1,2,3</tri3>
      <tri3 id="2">1,3,4</tri3>
      <tri3 id="3">1,4,5</tri3>
      <tri3 id="4">1,5,6</tri3>
      <tri3 id="5">1,6,7</tri3>
      <tri3 id="6">1,7,8</tri3>
      <tri3 id="7">1,8,9</tri3>
      <tri3 id="8">1,9,10</tri3>
      <tri3 id="9">1,10,11</tri3>
      <tri3 id="10">1,11,12</tri3>
      <tri3 id="11">1,12,13</tri3>
      <tri3 id="12">1,13,14</tri3>
      <tri3 id="13">1,14,15</tri3>
      <tri3 id="14">1,15,16</tri3>
      <tri3 id="15">1,16,17</tri3>
      <tri3 id="16">1,17,18</tri3>
      <tri3 id="17">1,18,19</tri3>
      <tri3 id="18">1,19,20</tri3>
      <tri3 id="19">1,20,21</tri3>
      <tri3 id="20">1,21,22</tri3>
<!-- ... 4 like lines cut -->
      <quad4 id="25">2,3,27,26</quad4>
      <quad4 id="26">3,4,28,27</quad4>
      <quad4 id="27">4,5,29,28</quad4>
      <quad4 id="28">5,6,30,29</quad4>
      <quad4 id="29">6,7,31,30</quad4>
      <quad4 id="30">7,8,32,31</quad4>
      <quad4 id="31">8,9,33,32</quad4>
      <quad4 id="32">9,10,34,33</quad4>
      <quad4 id="33">10,11,35,34</quad4>
      <quad4 id="34">11,12,36,35</quad4>
      <quad4 id="35">12,13,37,36</quad4>
      <quad4 id="36">13,14,38,37</quad4>
      <quad4 id="37">14,15,39,38</quad4>
      <quad4 id="38">15,16,40,39</quad4>
      <quad4 id="39">16,17,41,40</quad4>
      <quad4 id="40">17,18,42,41</quad4>
      <quad4 id="41">18,19,43,42</quad4>
      <quad4 id="42">19,20,44,43</quad4>
      <quad4 id="43">20,21,45,44</quad4>
      <quad4 id="44">21,22,46,45</quad4>
<!-- ... 436 like lines cut -->
    </Surface>
    <NodeSet name="Limbus">
      458,459,460,461,462,463,464,465,466,467,468,469,470,471,472,473,474,475,476,477,478,479,480,481,939,940,941,942,943,944,945,946,947,948,949,950,951,952,953,954,955,956,957,958,959,960,961,962
    </NodeSet>
    <NodeSet name="ICRS_Ring">
      314,315,316,317,318,319,320,321,322,323,324,325,326,327,328,329,330,331,332,333,334,335,336,337
    </NodeSet>
  </Mesh>
  <MeshDomains>
    <SolidDomain name="ApexWedges" mat="Cornea_HGO"/>
    <SolidDomain name="BodyHex" mat="Cornea_HGO"/>
  </MeshDomains>
  <Boundary>
    <bc name="FixLimbus" type="zero displacement" node_set="Limbus">
      <x_dof>1</x_dof>
      <y_dof>1</y_dof>
      <z_dof>1</z_dof>
    </bc>
    <!-- ICRS rigido a 80% prof. anel=14, r~4.2mm -->
    <bc name="FixICRS" type="zero displacement" node_set="ICRS_Ring">
      <x_dof>1</x_dof>
      <y_dof>1</y_dof>
      <z_dof>0</z_dof>
    </bc>
  </Boundary>
  <Loads>
    <surface_load name="IOP_Load" type="pressure" surface="Endotelio">
      <pressure lc="1">0.00199983</pressure>
      <linear>0</linear>
    </surface_load>
  </Loads>
  <LoadData>
    <load_controller id="1" type="loadcurve">
      <interpolate>LINEAR</interpolate>
      <extend>CONSTANT</extend>
      <points>
        <pt>0,0</pt>
        <pt>1,1</pt>
      </points>
    </load_controller>
  </LoadData>
  <Output>
    <plotfile type="febio">
      <var type="displacement"/>
      <var type="stress"/>
    </plotfile>
    <logfile>
      <element_data file="C:\Users\3D_OCT\Documents\Antigravity\Vetores Anel\fem\Simulation_Core\hgo_icrs_stress.csv" data="sx;sy;sz;sxy;syz;sxz" delim=","/>
      <node_data file="C:\Users\3D_OCT\Documents\Antigravity\Vetores Anel\fem\Simulation_Core\hgo_icrs_disp.csv" data="ux;uy;uz" delim=","/>
    </logfile>
  </Output>
</febio_spec>